

Opening input/output transcript to file "C:\Users\USER\Documents\Project CES\Anduril F1\Ansys Fluent CFD\CFD - Trail 3 (V2 UoSM)\Fluent\fluent-20240625-161010-12480.trn".
Auto-Transcript Start Time:  16:10:10, 25 Jun 2024 Malay Peninsula Standard Time 

              Welcome to ANSYS Fluent 2024 R1

              Copyright 1987-2024 ANSYS, Inc. All Rights Reserved.
              Unauthorized use, distribution or duplication is prohibited.
              This product is subject to U.S. laws governing export and re-export.
              For full Legal Notice, see documentation.

Build Time: Nov 22 2023 10:31:01 EST  Build Id: 10184  
 
Connected License Server List:	<Shared_Web_License_Server>

     --------------------------------------------------------------
     This is a student version of ANSYS FLUENT. Usage of this product
     license is limited to the terms and conditions specified in your ANSYS
     license form, additional terms section.
     --------------------------------------------------------------
Host spawning Node 0 on machine "StarForge-FS" (win64).

----------------------------------------------------------------------------------------
ID    Hostname      Core   O.S.         PID    Vendor                                  
----------------------------------------------------------------------------------------
n15   StarForge-FS  16/16  Windows-x64  6932   13th Gen Intel(R) Core(TM) i7-13620H    
n14   StarForge-FS  15/16  Windows-x64  17876  13th Gen Intel(R) Core(TM) i7-13620H    
n13   StarForge-FS  14/16  Windows-x64  13816  13th Gen Intel(R) Core(TM) i7-13620H    
n12   StarForge-FS  13/16  Windows-x64  2340   13th Gen Intel(R) Core(TM) i7-13620H    
n11   StarForge-FS  12/16  Windows-x64  420    13th Gen Intel(R) Core(TM) i7-13620H    
n10   StarForge-FS  11/16  Windows-x64  13000  13th Gen Intel(R) Core(TM) i7-13620H    
n9    StarForge-FS  10/16  Windows-x64  15012  13th Gen Intel(R) Core(TM) i7-13620H    
n8    StarForge-FS  9/16   Windows-x64  14984  13th Gen Intel(R) Core(TM) i7-13620H    
n7    StarForge-FS  8/16   Windows-x64  18564  13th Gen Intel(R) Core(TM) i7-13620H    
n6    StarForge-FS  7/16   Windows-x64  8076   13th Gen Intel(R) Core(TM) i7-13620H    
n5    StarForge-FS  6/16   Windows-x64  13088  13th Gen Intel(R) Core(TM) i7-13620H    
n4    StarForge-FS  5/16   Windows-x64  16852  13th Gen Intel(R) Core(TM) i7-13620H    
n3    StarForge-FS  4/16   Windows-x64  17604  13th Gen Intel(R) Core(TM) i7-13620H    
n2    StarForge-FS  3/16   Windows-x64  19052  13th Gen Intel(R) Core(TM) i7-13620H    
n1    StarForge-FS  2/16   Windows-x64  19128  13th Gen Intel(R) Core(TM) i7-13620H    
n0*   StarForge-FS  1/16   Windows-x64  14744  13th Gen Intel(R) Core(TM) i7-13620H    
host  StarForge-FS         Windows-x64  19480  13th Gen Intel(R) Core(TM) i7-13620H    

MPI Option Selected: intel
Selected system interconnect: default
----------------------------------------------------------------------------------------

Cleanup script file is C:\Users\USER\Documents\Project CES\Anduril F1\Ansys Fluent CFD\CFD - Trail 3 (V2 UoSM)\Fluent\cleanup-fluent-StarForge-FS-19480.bat

Meshing> 
===================================================================================
=   BAD TERMINATION OF ONE OF YOUR APPLICATION PROCESSES
=   RANK 0 PID 14744 RUNNING AT StarForge-FS
=   EXIT STATUS: 1073807364 (40010004)
===================================================================================

===================================================================================
=   BAD TERMINATION OF ONE OF YOUR APPLICATION PROCESSES
=   RANK 1 PID 19128 RUNNING AT StarForge-FS
=   EXIT STATUS: 1073807364 (40010004)
===================================================================================

===================================================================================
=   BAD TERMINATION OF ONE OF YOUR APPLICATION PROCESSES
=   RANK 2 PID 19052 RUNNING AT StarForge-FS
=   EXIT STATUS: 1073807364 (40010004)
===================================================================================

===================================================================================
=   BAD TERMINATION OF ONE OF YOUR APPLICATION PROCESSES
=   RANK 3 PID 17604 RUNNING AT StarForge-FS
=   EXIT STATUS: 1073807364 (40010004)
===================================================================================

===================================================================================
=   BAD TERMINATION OF ONE OF YOUR APPLICATION PROCESSES
=   RANK 4 PID 16852 RUNNING AT StarForge-FS
=   EXIT STATUS: 1073807364 (40010004)
===================================================================================

===================================================================================
=   BAD TERMINATION OF ONE OF YOUR APPLICATION PROCESSES
=   RANK 5 PID 13088 RUNNING AT StarForge-FS
=   EXIT STATUS: 1073807364 (40010004)
===================================================================================

===================================================================================
=   BAD TERMINATION OF ONE OF YOUR APPLICATION PROCESSES
=   RANK 6 PID 8076 RUNNING AT StarForge-FS
=   EXIT STATUS: 1073807364 (40010004)
===================================================================================

===================================================================================
=   BAD TERMINATION OF ONE OF YOUR APPLICATION PROCESSES
=   RANK 7 PID 18564 RUNNING AT StarForge-FS
=   EXIT STATUS: 1073807364 (40010004)
===================================================================================

===================================================================================
=   BAD TERMINATION OF ONE OF YOUR APPLICATION PROCESSES
=   RANK 8 PID 14984 RUNNING AT StarForge-FS
=   EXIT STATUS: 1073807364 (40010004)
===================================================================================

===================================================================================
=   BAD TERMINATION OF ONE OF YOUR APPLICATION PROCESSES
=   RANK 9 PID 15012 RUNNING AT StarForge-FS
=   EXIT STATUS: 1073807364 (40010004)
===================================================================================

===================================================================================
=   BAD TERMINATION OF ONE OF YOUR APPLICATION PROCESSES
=   RANK 10 PID 13000 RUNNING AT StarForge-FS
=   EXIT STATUS: 1073807364 (40010004)
===================================================================================

===================================================================================
=   BAD TERMINATION OF ONE OF YOUR APPLICATION PROCESSES
=   RANK 11 PID 420 RUNNING AT StarForge-FS
=   EXIT STATUS: 1073807364 (40010004)
===================================================================================

===================================================================================
=   BAD TERMINATION OF ONE OF YOUR APPLICATION PROCESSES
=   RANK 12 PID 2340 RUNNING AT StarForge-FS
=   EXIT STATUS: 1073807364 (40010004)
===================================================================================

===================================================================================
=   BAD TERMINATION OF ONE OF YOUR APPLICATION PROCESSES
=   RANK 13 PID 13816 RUNNING AT StarForge-FS
=   EXIT STATUS: 1073807364 (40010004)
===================================================================================

===================================================================================
=   BAD TERMINATION OF ONE OF YOUR APPLICATION PROCESSES
=   RANK 14 PID 17876 RUNNING AT StarForge-FS
=   EXIT STATUS: 1073807364 (40010004)
===================================================================================

===================================================================================
=   BAD TERMINATION OF ONE OF YOUR APPLICATION PROCESSES
=   RANK 15 PID 6932 RUNNING AT StarForge-FS
=   EXIT STATUS: 1073807364 (40010004)
===================================================================================

