Auto-Transcript Start Time:  21:05:35, 26 Jun 2024 Malay Peninsula Standard Time 
Current Directory: "C:\Users\USER\Documents\Project CES\Anduril F1\Ansys Fluent CFD\CFD - Trail 3 (V2 UoSM)\Export"

              Welcome to ANSYS Fluent 2024 R1

              Copyright 1987-2024 ANSYS, Inc. All Rights Reserved.
              Unauthorized use, distribution or duplication is prohibited.
              This product is subject to U.S. laws governing export and re-export.
              For full Legal Notice, see documentation.

Build Time: Nov 22 2023 10:31:01 EST  Build Id: 10184  
 
Connected License Server List:	<Shared_Web_License_Server>

     --------------------------------------------------------------
     This is a student version of ANSYS FLUENT. Usage of this product
     license is limited to the terms and conditions specified in your ANSYS
     license form, additional terms section.
     --------------------------------------------------------------
Host spawning Node 0 on machine "StarForge-FS" (win64).

----------------------------------------------------------------------------------------
ID    Hostname      Core   O.S.         PID    Vendor                                  
----------------------------------------------------------------------------------------
n15   StarForge-FS  16/16  Windows-x64  5396   13th Gen Intel(R) Core(TM) i7-13620H    
n14   StarForge-FS  15/16  Windows-x64  8840   13th Gen Intel(R) Core(TM) i7-13620H    
n13   StarForge-FS  14/16  Windows-x64  11312  13th Gen Intel(R) Core(TM) i7-13620H    
n12   StarForge-FS  13/16  Windows-x64  15140  13th Gen Intel(R) Core(TM) i7-13620H    
n11   StarForge-FS  12/16  Windows-x64  20472  13th Gen Intel(R) Core(TM) i7-13620H    
n10   StarForge-FS  11/16  Windows-x64  20284  13th Gen Intel(R) Core(TM) i7-13620H    
n9    StarForge-FS  10/16  Windows-x64  21964  13th Gen Intel(R) Core(TM) i7-13620H    
n8    StarForge-FS  9/16   Windows-x64  20296  13th Gen Intel(R) Core(TM) i7-13620H    
n7    StarForge-FS  8/16   Windows-x64  21160  13th Gen Intel(R) Core(TM) i7-13620H    
n6    StarForge-FS  7/16   Windows-x64  10556  13th Gen Intel(R) Core(TM) i7-13620H    
n5    StarForge-FS  6/16   Windows-x64  18712  13th Gen Intel(R) Core(TM) i7-13620H    
n4    StarForge-FS  5/16   Windows-x64  22812  13th Gen Intel(R) Core(TM) i7-13620H    
n3    StarForge-FS  4/16   Windows-x64  12856  13th Gen Intel(R) Core(TM) i7-13620H    
n2    StarForge-FS  3/16   Windows-x64  21692  13th Gen Intel(R) Core(TM) i7-13620H    
n1    StarForge-FS  2/16   Windows-x64  19284  13th Gen Intel(R) Core(TM) i7-13620H    
n0*   StarForge-FS  1/16   Windows-x64  1440   13th Gen Intel(R) Core(TM) i7-13620H    
host  StarForge-FS         Windows-x64  22776  13th Gen Intel(R) Core(TM) i7-13620H    

MPI Option Selected: intel
Selected system interconnect: default
----------------------------------------------------------------------------------------

Cleanup script file is C:\\Users\\USER\\Documents\\Project CES\\Anduril F1\\Ansys Fluent CFD\\CFD - Trail 3 (V2 UoSM)\\Export\\cleanup-fluent-StarForge-FS-22776.bat
(cx-gui-do cx-activate-tab-index "NavigationPane*Frame1(TreeTab)" 0)

Meshing> (cx-gui-do cx-activate-item "Key Behavioral Changes*PanelButtons*PushButton1(OK)")

Warning: PMDB file will not be saved as the same is being imported.

Importing one geom object per program-controlled and one zone per body ...
    C:\\Program Files\\ANSYS Inc\\ANSYS Student\\v241\\commonfiles\\CPython\\3_10\\winx64\\Release\\python\\..\\Ansys\\TGrid\\CADReaders.py started by USER on StarForge-FS winx64 on Wed Jun 26 21:05:57 2024
    using Python 3.10.9 (remotes/origin/4e018266dafe29ec2836492d71d245fcfd366d07-dirty:4e018266, Jan  3 2) [MSC v.1920 64 bit (AMD64)]
    
    using Ansys.Meshing.FieldMesher build Nov 27 2023 11:54:13
    
    running ANSYS TGrid CADToTGridConverter ...
    setting up parameters ...
    setting up parameters done.
    running conversion ...
    converting 1 file(s) from Workbench to FLTG using output path 'C:\\Users\\USER\\Documents\\Project CES\\Anduril F1\\Ansys Fluent CFD\\CFD - Trail 3 (V2 UoSM)\\Export\\FM_StarForge-FS_4196/out17194071564196.tgf'
    converting file 'V2-final-trail.pmdb' (1 of 1) from Workbench to FLTG using output path 'C:\\Users\\USER\\Documents\\Project CES\\Anduril F1\\Ansys Fluent CFD\\CFD - Trail 3 (V2 UoSM)\\Export\\FM_StarForge-FS_4196'
    importing data ...
    importing meshing model from PartMgr from file 'C:/Users/USER/Documents/Project CES/Anduril F1/Ansys Fluent CFD/CFD - Trail 3 (V2 UoSM)/Export/V2-final-trail.pmdb' ...
    setting enclosure and symmetry processing to False
    setting transfer named selections to True
    setting named selection prefixes to ''
    setting mixed import resolution type to 'SolidAndSurface'
    setting target application to 'FluentMeshing'
    initializing part manager from file ...
    processing assembly 'C:\\Users\\USER\\Documents\\Project CES\\Anduril F1\\Ansys Fluent CFD\\CFD - Trail 3 (V2 UoSM)\\Discovery_File.dsco' with ID 1 and reference key '<?xml version="1.0" encoding="utf-16"?>
    <IdTable xmlns:xsd="http://www.w3.org/2001/XMLSchema" xmlns:xsi="http://www.w3.org/2001/XMLSchema-instance">
      <Table>
        <Entry>
          <AssemblyVersionInfo>
            <AssemblySavedVersion>2147483647</AssemblySavedVersion>
            <AssemblySavedBuildDate>2147483647</AssemblySavedBuildDate>
            <MigrateToCompressedLabelIsDisabled>false</MigrateToCompressedLabelIsDisabled>
          </AssemblyVersionInfo>
          <Text>~sO_~iI57b6b124-317d-4f39-b13b-ec3693ca0d06.6398_#~oE57b6b124-317d-4f39-b13b-ec3693ca0d06.6394_#_</Text>
          <Id>10000</Id>
          <IsExploded>false</IsExploded>
        </Entry>
      </Table>
      <AssemblyVersionInfo>
        <AssemblySavedVersion>2147483647</AssemblySavedVersion>
        <AssemblySavedBuildDate>2147483647</AssemblySavedBuildDate>
        <MigrateToCompressedLabelIsDisabled>false</MigrateToCompressedLabelIsDisabled>
      </AssemblyVersionInfo>
    </IdTable>'
    length unit = [m]
    processing part 'Enclosure' with ID 3
    processing named selection 'Inlet'
    processing named selection 'Outlet'
    processing named selection 'Top wall'
    processing named selection 'Side wall'
    processing named selection 'Symmetry'
    processing named selection 'Ground'
    processing named selection 'Front Wing'
    processing named selection 'Rear Wing'
    processing named selection 'Rear Wheel Patch'
    processing named selection 'Front Wheel Patch'
    processing named selection 'Rear MRF'
    processing named selection 'Front MRF'
    processing named selection 'Chasis'
    processing data ...
    removing named collections of entities ...
    removing named collections of entities stopped, no named collections selected.
    analyzing feature edges ...
    detecting feature edges, feature angle = 40 [deg] ...
        Data information
            Meshing model
                Attributes:
                    'LengthUnit': '[mm]'
                Entity summary:
                    Collection: 13
                    Component : 2
                    Body      : 1
                    Shell     : 2
                    Face      : 240
                    Loop      : 261
                    Edge      : 605
                    Vertex    : 379
                    Surface   : 240
                    Curve     : 605
                Tessellation summary:
                    Face facets  : 29770
                    Edge segments: 6780
                Bounding box:
                    (-329.9760905206203, -508.7127875685692, -0.8299999999999998) x (8.715007151563684e-05, 1991.807739257813, 342.9836120605469)
                Assembly component hierarchy:
                    'C:\\Users\\USER\\Documents\\Project CES\\Anduril F1\\Ansys Fluent CFD\\CFD - Trail 3 (V2 UoSM)\\Discovery_File.dsco'
                      'Enclosure'
                NamedCollections:
                    'Inlet'
                    'Outlet'
                    'Top wall'
                    'Side wall'
                    'Symmetry'
                    'Ground'
                    'Front Wing'
                    'Rear Wing'
                    'Rear Wheel Patch'
                    'Front Wheel Patch'
                    'Rear MRF'
                    'Front MRF'
                    'Chasis'
    
    
    exporting FLTG data to file 'C:\\Users\\USER\\Documents\\Project CES\\Anduril F1\\Ansys Fluent CFD\\CFD - Trail 3 (V2 UoSM)\\Export\\FM_StarForge-FS_4196\\out17194071564196.tgf' ...
    writing face-based mesh file 'C:\\Users\\USER\\Documents\\Project CES\\Anduril F1\\Ansys Fluent CFD\\CFD - Trail 3 (V2 UoSM)\\Export\\FM_StarForge-FS_4196\\out17194071564196.tgf' ...
    ======== Exported Data ========
    Entity summary:
        Object       : 1
        Object region: 14
        Zone         : 38
    
    running conversion done.
    running ANSYS TGrid CADToTGridConverter done.
    ran ANSYS TGrid CADToTGridConverter in 0.560 [s]
        ======== Command Execution Log Manager ========
        Number of execution logs: 0
    

Reading "C:\Users\USER\Documents\Project CES\Anduril F1\Ansys Fluent CFD\CFD - Trail 3 (V2 UoSM)\Export\FM_StarForge-FS_4196/out17194071564196.tgf"...
Reading "C:\Users\USER\Documents\Project CES\Anduril F1\Ansys Fluent CFD\CFD - Trail 3 (V2 UoSM)\Export\FM_StarForge-FS_4196/out17194071564196.tgf"...
nodes: 16225
edges: 1369
faces: 29736
cells: 0
reading 16225 storage data (id 1, type 41, double precision binary).
generating pointers...done.
extracting boundary entities...
 16225 boundary nodes.
 29736 boundary faces.
 13 boundary face zones.
done.
analyzing boundary connectivity...done.

---------------- Import of V2-final-trail, consisting of one single part/object , complete. 
 
(newline)


Meshing> (cx-use-window-id 51)
(cx-use-window-id 51)
(cx-set-camera-relative '(2571.82 -6204.18 2057.91) '(0 0 0) '(0.375849 0.275308 0.360544) 0 0)
(cx-use-window-id 51)
(cx-use-window-id 51)
(cx-use-window-id 51)
(handle-key "control ??")
(cx-use-window-id 51)
(dolly-camera 0 49.8676 0)
(cx-use-window-id 51)
(handle-key "control ??")
(cx-gui-do cx-activate-item "ToolBar*View*projection")
(cx-gui-do cx-activate-item "MenuBar*PopupMenuProjection*Orthographic Projection")
S_CreateRefinementRegions:
 RefinementRegionsName : local-refinement-front-wheel
 CreationMethod : Box
 BOIMaxSize : 6
 BOISizeName : boi_1
 SelectionType : label
 ZoneSelectionList : ()
 ZoneLocation : ()
 LabelSelectionList : (front-mrf)
 ObjectSelectionList : ()
 ZoneSelectionSingle : ()
 ObjectSelectionSingle : ()
 BoundingBoxObject : (__map__ (SizeRelativeLength . Ratio relative to geometry size) (Xmax . -13.64509) (XmaxRatio . 0.1) (Xmin . -43.073911) (XminRatio . 0.1) (Ymax . -33.014946) (YmaxRatio . 1) (Ymin . -95.976069) (YminRatio . 0.1) (Zmax . 32.314612) (ZmaxRatio . 0.1) (Zmin . -3.6853697) (ZminRatio . 0.1))
 OffsetObject : (__map__ (AspectRatio . 5) (BoundaryLayerHeight . 128) (BoundaryLayerLevels . 1) (CrossWakeGrowthFactor . 1.1) (DefeaturingSize . 8) (EdgeSelectionList) (FirstHeight . 0.01) (FlipDirection . #f) (FlowDirection . X) (LastRatioPercentage . 20) (MptMethodType . Automatic) (NumberOfLayers . 4) (OffsetMethodType . uniform) (Rate . 1.2) (ShowCoordinates . #t) (WakeGrowthFactor . 2) (WakeLevels . 1) (X . 0) (Y . 0) (Z . 0))
 CylinderObject : (__map__ (HeightBackInc . 0) (HeightFrontInc . 0) (HeightNode . none) (Node1 . none) (Node2 . none) (Node3 . none) (Options . 3 Arc Nodes) (Radius1 . 0) (Radius2 . 0))
 VolumeFill : hexcore
Create new external boundaries.

---------------- A refinement region was added with the size 6
S_CreateRefinementRegions:
 RefinementRegionsName : local-refinement-rear-wheel
 CreationMethod : Box
 BOIMaxSize : 6
 BOISizeName : boi_1
 SelectionType : label
 ZoneSelectionList : ()
 ZoneLocation : ()
 LabelSelectionList : (rear-mrf)
 ObjectSelectionList : ()
 ZoneSelectionSingle : ()
 ObjectSelectionSingle : ()
 BoundingBoxObject : (__map__ (SizeRelativeLength . Ratio relative to geometry size) (Xmax . -18.186839) (XmaxRatio . 0.1) (Xmin . -42.661008) (XminRatio . 0.1) (Ymax . 70.132285) (YmaxRatio . 1) (Ymin . 7.1322871) (YminRatio . 0.1) (Zmax . 32.314684) (ZmaxRatio . 0.1) (Zmin . -3.6853162) (ZminRatio . 0.1))
 OffsetObject : (__map__ (AspectRatio . 5) (BoundaryLayerHeight . 24) (BoundaryLayerLevels . 1) (CrossWakeGrowthFactor . 1.1) (DefeaturingSize . 8) (EdgeSelectionList) (FirstHeight . 0.01) (FlipDirection . #f) (FlowDirection . X) (LastRatioPercentage . 20) (MptMethodType . Automatic) (NumberOfLayers . 4) (OffsetMethodType . uniform) (Rate . 1.2) (ShowCoordinates . #t) (WakeGrowthFactor . 2) (WakeLevels . 1) (X . 0) (Y . 0) (Z . 0))
 CylinderObject : (__map__ (HeightBackInc . 0) (HeightFrontInc . 0) (HeightNode . none) (Node1 . none) (Node2 . none) (Node3 . none) (Options . 3 Arc Nodes) (Radius1 . 0) (Radius2 . 0))
 VolumeFill : hexcore
Create new external boundaries.

---------------- A refinement region was added with the size 6

Error: Failed to update task "Create Local Refinement Regions" as value(s) for below argument(s) are not provided: 

Labels

Error Object: #f

Error: state/object/execute-command:Exception encountered in S_AddChildAndUpdate: Failed to update task "Create Local Refinement Regions" as value(s) for below argument(s) are not provided: 

Labels

Error Object: ()
(cx-gui-do cx-activate-item "Error*Cancel")
S_CreateRefinementRegions:
 RefinementRegionsName : local-refinement-rear-wing
 CreationMethod : Box
 BOIMaxSize : 32
 BOISizeName : boi_1
 SelectionType : label
 ZoneSelectionList : ()
 ZoneLocation : ()
 LabelSelectionList : (rear-wing)
 ObjectSelectionList : ()
 ZoneSelectionSingle : ()
 ObjectSelectionSingle : ()
 BoundingBoxObject : (__map__ (SizeRelativeLength . Ratio relative to geometry size) (Xmax . 1.2708616e-12) (XmaxRatio . 0) (Xmin . -49.447809) (XminRatio . 0.5) (Ymax . 87.159014) (YmaxRatio . 1.5) (Ymin . 57.31278) (YminRatio . 0.1) (Zmax . 54.534439) (ZmaxRatio . 1) (Zmin . 52.507626) (ZminRatio . 0.1))
 OffsetObject : (__map__ (AspectRatio . 5) (BoundaryLayerHeight . 128) (BoundaryLayerLevels . 1) (CrossWakeGrowthFactor . 1.1) (DefeaturingSize . 8) (EdgeSelectionList) (FirstHeight . 0.01) (FlipDirection . #f) (FlowDirection . X) (LastRatioPercentage . 20) (MptMethodType . Automatic) (NumberOfLayers . 4) (OffsetMethodType . uniform) (Rate . 1.2) (ShowCoordinates . #t) (WakeGrowthFactor . 2) (WakeLevels . 1) (X . 0) (Y . 0) (Z . 0))
 CylinderObject : (__map__ (HeightBackInc . 0) (HeightFrontInc . 0) (HeightNode . none) (Node1 . none) (Node2 . none) (Node3 . none) (Options . 3 Arc Nodes) (Radius1 . 0) (Radius2 . 0))
 VolumeFill : hexcore
Create new external boundaries.

---------------- A refinement region was added with the size 32
deleting face-zone local-refinement-rear-wing (id 67) 
deleting node-zone boundary-node-69 (id 69) 
deleting node-zone boundary-node-70 (id 70) 
removed 46552 faces.
Deleting local-refinement-rear-wing-boi
deleting face-zone local-refinement-rear-wheel (id 58) 
deleting node-zone boundary-node-71 (id 71) 
deleting node-zone boundary-node-72 (id 72) 
removed 974 faces.
Deleting local-refinement-rear-wheel-boi
deleting face-zone local-refinement-front-wheel (id 49) 
deleting node-zone boundary-node-73 (id 73) 
deleting node-zone boundary-node-74 (id 74) 
removed 792 faces.
Deleting local-refinement-front-wheel-boi
S_CreateRefinementRegions:
 RefinementRegionsName : local-refinement-front-wheel
 CreationMethod : Box
 BOIMaxSize : 6
 BOISizeName : local-refinement-front-wheel
 SelectionType : label
 ZoneSelectionList : ()
 ZoneLocation : ()
 LabelSelectionList : (front-mrf)
 ObjectSelectionList : ()
 ZoneSelectionSingle : ()
 ObjectSelectionSingle : ()
 BoundingBoxObject : (__map__ (SizeRelativeLength . Ratio relative to geometry size) (Xmax . -13.64509) (XmaxRatio . 0.1) (Xmin . -43.073911) (XminRatio . 0.1) (Ymax . -33.014946) (YmaxRatio . 1) (Ymin . -95.976069) (YminRatio . 0.1) (Zmax . 32.314612) (ZmaxRatio . 0.1) (Zmin . -3.6853697) (ZminRatio . 0.1))
 OffsetObject : (__map__ (AspectRatio . 5) (BoundaryLayerHeight . 128) (BoundaryLayerLevels . 1) (CrossWakeGrowthFactor . 1.1) (DefeaturingSize . 8) (EdgeSelectionList) (FirstHeight . 0.01) (FlipDirection . #f) (FlowDirection . X) (LastRatioPercentage . 20) (MptMethodType . Automatic) (NumberOfLayers . 4) (OffsetMethodType . uniform) (Rate . 1.2) (ShowCoordinates . #t) (WakeGrowthFactor . 2) (WakeLevels . 1) (X . 0) (Y . 0) (Z . 0))
 CylinderObject : (__map__ (HeightBackInc . 0) (HeightFrontInc . 0) (HeightNode . none) (Node1 . none) (Node2 . none) (Node3 . none) (Options . 3 Arc Nodes) (Radius1 . 0) (Radius2 . 0))
 VolumeFill : hexcore
Create new external boundaries.

---------------- A refinement region was added with the size 6
S_CreateRefinementRegions:
 RefinementRegionsName : local-refinement-rear-wheel
 CreationMethod : Box
 BOIMaxSize : 6
 BOISizeName : local-refinement-rear-wheel
 SelectionType : label
 ZoneSelectionList : ()
 ZoneLocation : ()
 LabelSelectionList : (rear-mrf)
 ObjectSelectionList : ()
 ZoneSelectionSingle : ()
 ObjectSelectionSingle : ()
 BoundingBoxObject : (__map__ (SizeRelativeLength . Ratio relative to geometry size) (Xmax . -18.186839) (XmaxRatio . 0.1) (Xmin . -42.661008) (XminRatio . 0.1) (Ymax . 70.132285) (YmaxRatio . 1) (Ymin . 7.1322871) (YminRatio . 0.1) (Zmax . 32.314684) (ZmaxRatio . 0.1) (Zmin . -3.6853162) (ZminRatio . 0.1))
 OffsetObject : (__map__ (AspectRatio . 5) (BoundaryLayerHeight . 24) (BoundaryLayerLevels . 1) (CrossWakeGrowthFactor . 1.1) (DefeaturingSize . 8) (EdgeSelectionList) (FirstHeight . 0.01) (FlipDirection . #f) (FlowDirection . X) (LastRatioPercentage . 20) (MptMethodType . Automatic) (NumberOfLayers . 4) (OffsetMethodType . uniform) (Rate . 1.2) (ShowCoordinates . #t) (WakeGrowthFactor . 2) (WakeLevels . 1) (X . 0) (Y . 0) (Z . 0))
 CylinderObject : (__map__ (HeightBackInc . 0) (HeightFrontInc . 0) (HeightNode . none) (Node1 . none) (Node2 . none) (Node3 . none) (Options . 3 Arc Nodes) (Radius1 . 0) (Radius2 . 0))
 VolumeFill : hexcore
Create new external boundaries.

---------------- A refinement region was added with the size 6
S_CreateRefinementRegions:
 RefinementRegionsName : local-refinement-rear-wing
 CreationMethod : Box
 BOIMaxSize : 2
 BOISizeName : local-refinement-rear-wing
 SelectionType : label
 ZoneSelectionList : ()
 ZoneLocation : ()
 LabelSelectionList : (rear-wing)
 ObjectSelectionList : ()
 ZoneSelectionSingle : ()
 ObjectSelectionSingle : ()
 BoundingBoxObject : (__map__ (SizeRelativeLength . Ratio relative to geometry size) (Xmax . 1.2708616e-12) (XmaxRatio . 0) (Xmin . -49.447809) (XminRatio . 0.5) (Ymax . 87.159014) (YmaxRatio . 1.5) (Ymin . 57.31278) (YminRatio . 0.1) (Zmax . 54.534439) (ZmaxRatio . 1) (Zmin . 52.507626) (ZminRatio . 0.1))
 OffsetObject : (__map__ (AspectRatio . 5) (BoundaryLayerHeight . 128) (BoundaryLayerLevels . 1) (CrossWakeGrowthFactor . 1.1) (DefeaturingSize . 8) (EdgeSelectionList) (FirstHeight . 0.01) (FlipDirection . #f) (FlowDirection . X) (LastRatioPercentage . 20) (MptMethodType . Automatic) (NumberOfLayers . 4) (OffsetMethodType . uniform) (Rate . 1.2) (ShowCoordinates . #t) (WakeGrowthFactor . 2) (WakeLevels . 1) (X . 0) (Y . 0) (Z . 0))
 CylinderObject : (__map__ (HeightBackInc . 0) (HeightFrontInc . 0) (HeightNode . none) (Node1 . none) (Node2 . none) (Node3 . none) (Options . 3 Arc Nodes) (Radius1 . 0) (Radius2 . 0))
 VolumeFill : hexcore
Create new external boundaries.

---------------- A refinement region was added with the size 2
S_CreateRefinementRegions:
 RefinementRegionsName : local-refinement-nearfield
 CreationMethod : Box
 BOIMaxSize : 12
 BOISizeName : boi_1
 SelectionType : label
 ZoneSelectionList : ()
 ZoneLocation : ()
 LabelSelectionList : ()
 ObjectSelectionList : ()
 ZoneSelectionSingle : ()
 ObjectSelectionSingle : ()
 BoundingBoxObject : (__map__ (SizeRelativeLength . Directly specify coordinates) (Xmax . 0) (XmaxRatio . 0.1) (Xmin . -100) (XminRatio . 0.1) (Ymax . 300) (YmaxRatio . 0.1) (Ymin . -175) (YminRatio . 0.1) (Zmax . 150) (ZmaxRatio . 0.1) (Zmin . 0.2) (ZminRatio . 0.1))
 OffsetObject : (__map__ (AspectRatio . 5) (BoundaryLayerHeight . 48) (BoundaryLayerLevels . 1) (CrossWakeGrowthFactor . 1.1) (DefeaturingSize . 8) (EdgeSelectionList) (FirstHeight . 0.01) (FlipDirection . #f) (FlowDirection . X) (LastRatioPercentage . 20) (MptMethodType . Automatic) (NumberOfLayers . 4) (OffsetMethodType . uniform) (Rate . 1.2) (ShowCoordinates . #t) (WakeGrowthFactor . 2) (WakeLevels . 1) (X . 0) (Y . 0) (Z . 0))
 CylinderObject : (__map__ (HeightBackInc . 0) (HeightFrontInc . 0) (HeightNode . none) (Node1 . none) (Node2 . none) (Node3 . none) (Options . 3 Arc Nodes) (Radius1 . 0) (Radius2 . 0))
 VolumeFill : hexcore
Create new external boundaries.

---------------- A refinement region was added with the size 12
S_CreateRefinementRegions:
 RefinementRegionsName : local-refinement-midfield
 CreationMethod : Box
 BOIMaxSize : 24
 BOISizeName : boi_1
 SelectionType : label
 ZoneSelectionList : ()
 ZoneLocation : ()
 LabelSelectionList : ()
 ObjectSelectionList : ()
 ZoneSelectionSingle : ()
 ObjectSelectionSingle : ()
 BoundingBoxObject : (__map__ (SizeRelativeLength . Directly specify coordinates) (Xmax . 0) (XmaxRatio . 0.1) (Xmin . -135) (XminRatio . 0.1) (Ymax . 450) (YmaxRatio . 0.1) (Ymin . -250) (YminRatio . 0.1) (Zmax . 200) (ZmaxRatio . 0.1) (Zmin . 0.2) (ZminRatio . 0.1))
 OffsetObject : (__map__ (AspectRatio . 5) (BoundaryLayerHeight . 96) (BoundaryLayerLevels . 1) (CrossWakeGrowthFactor . 1.1) (DefeaturingSize . 8) (EdgeSelectionList) (FirstHeight . 0.01) (FlipDirection . #f) (FlowDirection . X) (LastRatioPercentage . 20) (MptMethodType . Automatic) (NumberOfLayers . 4) (OffsetMethodType . uniform) (Rate . 1.2) (ShowCoordinates . #t) (WakeGrowthFactor . 2) (WakeLevels . 1) (X . 0) (Y . 0) (Z . 0))
 CylinderObject : (__map__ (HeightBackInc . 0) (HeightFrontInc . 0) (HeightNode . none) (Node1 . none) (Node2 . none) (Node3 . none) (Options . 3 Arc Nodes) (Radius1 . 0) (Radius2 . 0))
 VolumeFill : hexcore
Create new external boundaries.

---------------- A refinement region was added with the size 24
S_CreateRefinementRegions:
 RefinementRegionsName : local-refinement-farfield
 CreationMethod : Box
 BOIMaxSize : 48
 BOISizeName : boi_1
 SelectionType : label
 ZoneSelectionList : ()
 ZoneLocation : ()
 LabelSelectionList : ()
 ObjectSelectionList : ()
 ZoneSelectionSingle : ()
 ObjectSelectionSingle : ()
 BoundingBoxObject : (__map__ (SizeRelativeLength . Directly specify coordinates) (Xmax . 0) (XmaxRatio . 0.1) (Xmin . -180) (XminRatio . 0.1) (Ymax . 700) (YmaxRatio . 0.1) (Ymin . -300) (YminRatio . 0.1) (Zmax . 250) (ZmaxRatio . 0.1) (Zmin . 0.2) (ZminRatio . 0.1))
 OffsetObject : (__map__ (AspectRatio . 5) (BoundaryLayerHeight . 192) (BoundaryLayerLevels . 1) (CrossWakeGrowthFactor . 1.1) (DefeaturingSize . 8) (EdgeSelectionList) (FirstHeight . 0.01) (FlipDirection . #f) (FlowDirection . X) (LastRatioPercentage . 20) (MptMethodType . Automatic) (NumberOfLayers . 4) (OffsetMethodType . uniform) (Rate . 1.2) (ShowCoordinates . #t) (WakeGrowthFactor . 2) (WakeLevels . 1) (X . 0) (Y . 0) (Z . 0))
 CylinderObject : (__map__ (HeightBackInc . 0) (HeightFrontInc . 0) (HeightNode . none) (Node1 . none) (Node2 . none) (Node3 . none) (Options . 3 Arc Nodes) (Radius1 . 0) (Radius2 . 0))
 VolumeFill : hexcore
Create new external boundaries.

---------------- A refinement region was added with the size 48

---------------- The Global Min size was adjusted to 0.15 

---- Warning--- Note that size controls based on edges cannot be used in a Size Control File

---------------- A curvature angle of 12 was added to the edges of curvature_chasis

---------------- A curvature angle of 12 was added to  curvature_chasis

---------------- The Global Min size was adjusted to 0.075 

---- Warning--- Note that size controls based on edges cannot be used in a Size Control File

---------------- A curvature angle of 9 was added to the edges of curvature_aero

---------------- A curvature angle of 9 was added to  curvature_aero
(cx-gui-do cx-activate-item "MenuBar*WriteSubMenu*Mesh...")
(cx-gui-do cx-set-file-dialog-entries "Select File" '( "V2-final-trail.msh.h5") "CFF Mesh Files (*.msh.h5 )")
Writing "C:/Users/USER/Documents/Project CES/Anduril F1/Ansys Fluent CFD/CFD - Trail 3 (V2 UoSM)/Export/V2-final-trail.msh.h5" ...
writing 11 node zones
writing 31 edge zones 
writing 19 face zones 
writing node curvature data...
done.Copying the required intermediate mesh files into C:\\Users\\USER\\Documents\\Project CES\\Anduril F1\\Ansys Fluent CFD\\CFD - Trail 3 (V2 UoSM)\\Export\\V2-final-trail_workflow_files
Done.
(cx-use-window-id 51)
(cx-set-camera-relative '(-200.441 -213.038 -700.407) '(0 0 0) '(0.475957 -0.106967 -0.127059) 0 0)
(cx-use-window-id 51)
(cx-set-camera-relative '(-149.544 -212.581 48.3063) '(0 0 0) '(0.0265249 -0.00836325 -0.0160776) 0 0)
(cx-use-window-id 51)
(cx-set-camera-relative '(-12.5424 -0.170288 -9.91952) '(0 0 0) '(0.0501342 -0.092377 -0.0497209) 0 0)

---------------- A curvature angle of 18 was added to  curvature_wheels
(cx-use-window-id 51)
(cx-set-camera-relative '(-7.45948 -1.69784 0.239687) '(0 0 0) '(0.0894416 -0.0140257 -0.0732422) 0 0)
(cx-use-window-id 51)
(cx-set-camera-relative '(134.843 72.6018 -47.0619) '(0 0 0) '(0.233829 0.461269 -0.315001) 0 0)
(cx-gui-do cx-activate-item "MenuBar*WriteSubMenu*Mesh...")
(cx-gui-do cx-set-file-dialog-entries "Select File" '( "V2-final-trail.msh.h5") "CFF Mesh Files (*.msh.h5 )")
(cx-gui-do cx-activate-item "Question*OK")
Writing "C:/Users/USER/Documents/Project CES/Anduril F1/Ansys Fluent CFD/CFD - Trail 3 (V2 UoSM)/Export/V2-final-trail.msh.h5" ...
writing 11 node zones
writing 31 edge zones 
writing 19 face zones 
writing node curvature data...
done.Copying the required intermediate mesh files into C:\\Users\\USER\\Documents\\Project CES\\Anduril F1\\Ansys Fluent CFD\\CFD - Trail 3 (V2 UoSM)\\Export\\V2-final-trail_workflow_files
Done.
Writing "C:\Users\USER\Documents\Project CES\Anduril F1\Ansys Fluent CFD\CFD - Trail 3 (V2 UoSM)\Export\FM_StarForge-FS_4196\TaskObject3.msh.h5" ...
writing 11 node zones
writing 31 edge zones 
writing 19 face zones 
writing node curvature data...
done.    processing size functions/scoped sizing to create Size Field...

Writing "C:\Users\USER\Documents\Project CES\Anduril F1\Ansys Fluent CFD\CFD - Trail 3 (V2 UoSM)\Export\FM_StarForge-FS_4196\V2-final-trail.sf"...
Writing "C:\Users\USER\Documents\Project CES\Anduril F1\Ansys Fluent CFD\CFD - Trail 3 (V2 UoSM)\Export\FM_StarForge-FS_4196\V2-final-trail.sf"...
Done.


Importing one mesh object per program-controlled and one zone per body ...
    C:\\Program Files\\ANSYS Inc\\ANSYS Student\\v241\\commonfiles\\CPython\\3_10\\winx64\\Release\\python\\..\\Ansys\\TGrid\\CADReaders.py started by USER on StarForge-FS winx64 on Wed Jun 26 21:14:18 2024
    using Python 3.10.9 (remotes/origin/4e018266dafe29ec2836492d71d245fcfd366d07-dirty:4e018266, Jan  3 2) [MSC v.1920 64 bit (AMD64)]
    
    using Ansys.Meshing.FieldMesher build Nov 27 2023 11:54:13
    
    running ANSYS TGrid CADToTGridConverter ...
    setting up parameters ...
    setting up parameters done.
    running conversion ...
    converting 1 file(s) from Workbench to FLTG using output path 'C:\\Users\\USER\\Documents\\Project CES\\Anduril F1\\Ansys Fluent CFD\\CFD - Trail 3 (V2 UoSM)\\Export\\FM_StarForge-FS_4196/out17194076574196.tgf'
    converting file 'V2-final-trail.pmdb' (1 of 1) from Workbench to FLTG using output path 'C:\\Users\\USER\\Documents\\Project CES\\Anduril F1\\Ansys Fluent CFD\\CFD - Trail 3 (V2 UoSM)\\Export\\FM_StarForge-FS_4196'
    importing data ...
    importing meshing model from PartMgr from file 'C:/Users/USER/Documents/Project CES/Anduril F1/Ansys Fluent CFD/CFD - Trail 3 (V2 UoSM)/Export/V2-final-trail.pmdb' ...
    setting enclosure and symmetry processing to False
    setting transfer named selections to True
    setting named selection prefixes to ''
    setting mixed import resolution type to 'SolidAndSurface'
    setting target application to 'FluentMeshing'
    initializing part manager from file ...
    processing assembly 'C:\\Users\\USER\\Documents\\Project CES\\Anduril F1\\Ansys Fluent CFD\\CFD - Trail 3 (V2 UoSM)\\Discovery_File.dsco' with ID 1 and reference key '<?xml version="1.0" encoding="utf-16"?>
    <IdTable xmlns:xsd="http://www.w3.org/2001/XMLSchema" xmlns:xsi="http://www.w3.org/2001/XMLSchema-instance">
      <Table>
        <Entry>
          <AssemblyVersionInfo>
            <AssemblySavedVersion>2147483647</AssemblySavedVersion>
            <AssemblySavedBuildDate>2147483647</AssemblySavedBuildDate>
            <MigrateToCompressedLabelIsDisabled>false</MigrateToCompressedLabelIsDisabled>
          </AssemblyVersionInfo>
          <Text>~sO_~iI57b6b124-317d-4f39-b13b-ec3693ca0d06.6398_#~oE57b6b124-317d-4f39-b13b-ec3693ca0d06.6394_#_</Text>
          <Id>10000</Id>
          <IsExploded>false</IsExploded>
        </Entry>
      </Table>
      <AssemblyVersionInfo>
        <AssemblySavedVersion>2147483647</AssemblySavedVersion>
        <AssemblySavedBuildDate>2147483647</AssemblySavedBuildDate>
        <MigrateToCompressedLabelIsDisabled>false</MigrateToCompressedLabelIsDisabled>
      </AssemblyVersionInfo>
    </IdTable>'
    length unit = [m]
    processing part 'Enclosure' with ID 3
    processing named selection 'Inlet'
    processing named selection 'Outlet'
    processing named selection 'Top wall'
    processing named selection 'Side wall'
    processing named selection 'Symmetry'
    processing named selection 'Ground'
    processing named selection 'Front Wing'
    processing named selection 'Rear Wing'
    processing named selection 'Rear Wheel Patch'
    processing named selection 'Front Wheel Patch'
    processing named selection 'Rear MRF'
    processing named selection 'Front MRF'
    processing named selection 'Chasis'
    processing data ...
    loading size function background grid from file 'C:\\Users\\USER\\Documents\\Project CES\\Anduril F1\\Ansys Fluent CFD\\CFD - Trail 3 (V2 UoSM)\\Export\\FM_StarForge-FS_4196\\\\V2-final-trail.sf' ...
    reading size function background grid file 'C:\\Users\\USER\\Documents\\Project CES\\Anduril F1\\Ansys Fluent CFD\\CFD - Trail 3 (V2 UoSM)\\Export\\FM_StarForge-FS_4196\\\\V2-final-trail.sf' ...
     Read 450097 vertices
    initializing size function background grid done in 0.214 [s]
    Error: Breakout detected
    
    Error: Front could not be closed at e1069 (-35.920273 -102.467663 14.052385)
    
    Error: Front could not be closed at e1119 (-3.440821 -111.940465 5.002171)
    
    tessellating 240 faces done in 25.702 [s]
    removing named collections of entities ...
    removing named collections of entities stopped, no named collections selected.
    analyzing feature edges ...
    detecting feature edges, feature angle = 40 [deg] ...
        Data information
            Meshing model
                Attributes:
                    'LengthUnit': '[mm]'
                Entity summary:
                    Collection: 13
                    Component : 2
                    Body      : 1
                    Shell     : 2
                    Face      : 240
                    Loop      : 261
                    Edge      : 605
                    Vertex    : 379
                    Surface   : 240
                    Curve     : 605
                Tessellation summary:
                    Face facets  : 244482
                    Edge segments: 10395
                Bounding box:
                    (-329.9761047363281, -508.7127990722656, -0.8299999833106995) x (8.715007425053045e-05, 1991.8076171875, 342.9836120605469)
                Assembly component hierarchy:
                    'C:\\Users\\USER\\Documents\\Project CES\\Anduril F1\\Ansys Fluent CFD\\CFD - Trail 3 (V2 UoSM)\\Discovery_File.dsco'
                      'Enclosure'
                NamedCollections:
                    'Inlet'
                    'Outlet'
                    'Top wall'
                    'Side wall'
                    'Symmetry'
                    'Ground'
                    'Front Wing'
                    'Rear Wing'
                    'Rear Wheel Patch'
                    'Front Wheel Patch'
                    'Rear MRF'
                    'Front MRF'
                    'Chasis'
    
    
    exporting FLTG data to file 'C:\\Users\\USER\\Documents\\Project CES\\Anduril F1\\Ansys Fluent CFD\\CFD - Trail 3 (V2 UoSM)\\Export\\FM_StarForge-FS_4196\\out17194076574196.tgf' ...
    writing face-based mesh file 'C:\\Users\\USER\\Documents\\Project CES\\Anduril F1\\Ansys Fluent CFD\\CFD - Trail 3 (V2 UoSM)\\Export\\FM_StarForge-FS_4196\\out17194076574196.tgf' ...
    ======== Exported Data ========
    Entity summary:
        Object       : 1
        Object region: 15
        Zone         : 40
    
    running conversion done.
    running ANSYS TGrid CADToTGridConverter done.
    ran ANSYS TGrid CADToTGridConverter in 26.772 [s]
        ======== Command Execution Log Manager ========
        Number of execution logs: 1
        MeshingModelCommandExecLog
            Label = 'ANSYS_MESH_FM_WARNING_ID_MESHINGMODEL_TESSELLATION_CREATION_ENTITIES_WHERE_CONFORMAL_TESSELLATION_FAILED'
            EntityIDs = (1637)
            Points = ()
    
    

Reading "C:\Users\USER\Documents\Project CES\Anduril F1\Ansys Fluent CFD\CFD - Trail 3 (V2 UoSM)\Export\FM_StarForge-FS_4196/out17194076574196.tgf"...
Reading "C:\Users\USER\Documents\Project CES\Anduril F1\Ansys Fluent CFD\CFD - Trail 3 (V2 UoSM)\Export\FM_StarForge-FS_4196/out17194076574196.tgf"...
nodes: 125819
edges: 3536
faces: 244482
cells: 0
reading 125819 storage data (id 1, type 41, double precision binary).
appending mesh...
done.
generating pointers...done.
extracting boundary entities...
 169753 boundary nodes.
 327746 boundary faces.
 33 boundary face zones.
done.

Reading "C:\Users\USER\Documents\Project CES\Anduril F1\Ansys Fluent CFD\CFD - Trail 3 (V2 UoSM)\Export\FM_StarForge-FS_4196\\V2-final-trail.sf"...
Reading "C:\Users\USER\Documents\Project CES\Anduril F1\Ansys Fluent CFD\CFD - Trail 3 (V2 UoSM)\Export\FM_StarForge-FS_4196\\V2-final-trail.sf"...
 Read 450097 vertices
5 boundary nodes.
0 faces removed.
removed 60 faces.

Found overlapping faces sharing edge bn445-bn572 (-35.552315 -101.945530 14.099691).
Warning: 
The regions may not be computed correctly.
Found overlapping faces sharing edge bn572-bn445 (-35.552315 -101.945530 14.099691).
Warning: 
The regions may not be computed correctly.
Found overlapping faces sharing edge bn634-bn492 (-35.504381 -101.913383 14.086021).
Warning: 
The regions may not be computed correctly.
Found overlapping faces sharing edge bn492-bn634 (-35.504381 -101.913383 14.086021).
Warning: 
The regions may not be computed correctly.
Error: The surface meshing was not successful. Import the CAD outside the workflow and use Diagnostics to identify problematic faces
Error Object: #f

Error: state/object/execute-command:Exception encountered in S_ExecuteTask: The surface meshing was not successful. Import the CAD outside the workflow and use Diagnostics to identify problematic faces
Error Object: ()
(cx-use-window-id 51)
(cx-set-camera-relative '(247.077 95.7422 476.899) '(0 0 0) '(-0.443029 0.442604 0.170466) 0 0)
(cx-use-window-id 51)
zone id: 6, name: origin-symmetry, type: geometry, count: 419
(cx-use-window-id 51)
(cx-use-window-id 51)
zone id: 6, name: origin-symmetry, type: geometry, count: 419
(cx-use-window-id 51)
(cx-use-window-id 51)
(cx-gui-do cx-activate-item "Messages*PanelButtons*PushButton1(Close)")
Reading "C:\Users\USER\Documents\Project CES\Anduril F1\Ansys Fluent CFD\CFD - Trail 3 (V2 UoSM)\Export\FM_StarForge-FS_4196\TaskObject3.msh.h5" ...
3D mesh
nodes: 43942
edges: 2300
faces: 83264 
cells: 0 
reading 11 node zones
reading 31 edge zones
reading 19 face zones
generating pointers...done.
extracting boundary entities...
 43942 boundary nodes.
 83264 boundary faces.
 19 boundary face zones.
done.
analyzing boundary connectivity...done.
Deleting curvature_wheels_faces
deleting edge-zone origin-rear-wing__135 (id 135) 
deleting edge-zone origin-rear-wing__136 (id 136) 
deleting edge-zone origin-front-wing__132 (id 132) 
deleting edge-zone origin-front-wing__133 (id 133) 
removed 659 nodes.
Deleting curvature_aero_edges
Deleting curvature_aero_faces
deleting edge-zone origin-chasis__129 (id 129) 
deleting edge-zone origin-chasis__130 (id 130) 
removed 282 nodes.
Deleting curvature_chasis_edges
Deleting curvature_chasis_faces
deleting face-zone local-refinement-farfield (id 127) 
deleting node-zone boundary-node-140 (id 140) 
deleting node-zone boundary-node-141 (id 141) 
removed 1796 faces.
Deleting local-refinement-farfield-boi
deleting face-zone local-refinement-midfield (id 118) 
deleting node-zone boundary-node-142 (id 142) 
deleting node-zone boundary-node-143 (id 143) 
removed 1780 faces.
Deleting local-refinement-midfield-boi
deleting face-zone local-refinement-nearfield (id 109) 
deleting node-zone boundary-node-144 (id 144) 
deleting node-zone boundary-node-145 (id 145) 
removed 1634 faces.
Deleting local-refinement-nearfield-boi
deleting face-zone local-refinement-rear-wing (id 100) 
deleting node-zone boundary-node-146 (id 146) 
deleting node-zone boundary-node-147 (id 147) 
removed 46552 faces.
Deleting local-refinement-rear-wing-boi
(newline)


Meshing> S_CreateRefinementRegions:
 RefinementRegionsName : local-refinement-rear-wing
 CreationMethod : Box
 BOIMaxSize : 2
 BOISizeName : local-refinement-rear-wing
 SelectionType : label
 ZoneSelectionList : ()
 ZoneLocation : ()
 LabelSelectionList : (rear-wing)
 ObjectSelectionList : ()
 ZoneSelectionSingle : ()
 ObjectSelectionSingle : ()
 BoundingBoxObject : (__map__ (SizeRelativeLength . Ratio relative to geometry size) (Xmax . 1.2708616e-12) (XmaxRatio . 0) (Xmin . -49.447809) (XminRatio . 0.5) (Ymax . 87.159014) (YmaxRatio . 1.5) (Ymin . 57.31278) (YminRatio . 0.1) (Zmax . 54.534439) (ZmaxRatio . 1) (Zmin . 52.507626) (ZminRatio . 0.1))
 OffsetObject : (__map__ (AspectRatio . 5) (BoundaryLayerHeight . 128) (BoundaryLayerLevels . 1) (CrossWakeGrowthFactor . 1.1) (DefeaturingSize . 8) (EdgeSelectionList) (FirstHeight . 0.01) (FlipDirection . #f) (FlowDirection . X) (LastRatioPercentage . 20) (MptMethodType . Automatic) (NumberOfLayers . 4) (OffsetMethodType . uniform) (Rate . 1.2) (ShowCoordinates . #t) (WakeGrowthFactor . 2) (WakeLevels . 1) (X . 0) (Y . 0) (Z . 0))
 CylinderObject : (__map__ (HeightBackInc . 0) (HeightFrontInc . 0) (HeightNode . none) (Node1 . none) (Node2 . none) (Node3 . none) (Options . 3 Arc Nodes) (Radius1 . 0) (Radius2 . 0))
 VolumeFill : hexcore
Create new external boundaries.

---------------- A refinement region was added with the size 2
S_CreateRefinementRegions:
 RefinementRegionsName : local-refinement-nearfield
 CreationMethod : Box
 BOIMaxSize : 12
 BOISizeName : local-refinement-nearfield
 SelectionType : label
 ZoneSelectionList : ()
 ZoneLocation : ()
 LabelSelectionList : ()
 ObjectSelectionList : ()
 ZoneSelectionSingle : ()
 ObjectSelectionSingle : ()
 BoundingBoxObject : (__map__ (SizeRelativeLength . Directly specify coordinates) (Xmax . 0) (XmaxRatio . 0.1) (Xmin . -100) (XminRatio . 0.1) (Ymax . 300) (YmaxRatio . 0.1) (Ymin . -175) (YminRatio . 0.1) (Zmax . 150) (ZmaxRatio . 0.1) (Zmin . 0.2) (ZminRatio . 0.1))
 OffsetObject : (__map__ (AspectRatio . 5) (BoundaryLayerHeight . 48) (BoundaryLayerLevels . 1) (CrossWakeGrowthFactor . 1.1) (DefeaturingSize . 8) (EdgeSelectionList) (FirstHeight . 0.01) (FlipDirection . #f) (FlowDirection . X) (LastRatioPercentage . 20) (MptMethodType . Automatic) (NumberOfLayers . 4) (OffsetMethodType . uniform) (Rate . 1.2) (ShowCoordinates . #t) (WakeGrowthFactor . 2) (WakeLevels . 1) (X . 0) (Y . 0) (Z . 0))
 CylinderObject : (__map__ (HeightBackInc . 0) (HeightFrontInc . 0) (HeightNode . none) (Node1 . none) (Node2 . none) (Node3 . none) (Options . 3 Arc Nodes) (Radius1 . 0) (Radius2 . 0))
 VolumeFill : hexcore
Create new external boundaries.

---------------- A refinement region was added with the size 12
S_CreateRefinementRegions:
 RefinementRegionsName : local-refinement-midfield
 CreationMethod : Box
 BOIMaxSize : 24
 BOISizeName : local-refinement-midfield
 SelectionType : label
 ZoneSelectionList : ()
 ZoneLocation : ()
 LabelSelectionList : ()
 ObjectSelectionList : ()
 ZoneSelectionSingle : ()
 ObjectSelectionSingle : ()
 BoundingBoxObject : (__map__ (SizeRelativeLength . Directly specify coordinates) (Xmax . 0) (XmaxRatio . 0.1) (Xmin . -135) (XminRatio . 0.1) (Ymax . 450) (YmaxRatio . 0.1) (Ymin . -250) (YminRatio . 0.1) (Zmax . 200) (ZmaxRatio . 0.1) (Zmin . 0.2) (ZminRatio . 0.1))
 OffsetObject : (__map__ (AspectRatio . 5) (BoundaryLayerHeight . 96) (BoundaryLayerLevels . 1) (CrossWakeGrowthFactor . 1.1) (DefeaturingSize . 8) (EdgeSelectionList) (FirstHeight . 0.01) (FlipDirection . #f) (FlowDirection . X) (LastRatioPercentage . 20) (MptMethodType . Automatic) (NumberOfLayers . 4) (OffsetMethodType . uniform) (Rate . 1.2) (ShowCoordinates . #t) (WakeGrowthFactor . 2) (WakeLevels . 1) (X . 0) (Y . 0) (Z . 0))
 CylinderObject : (__map__ (HeightBackInc . 0) (HeightFrontInc . 0) (HeightNode . none) (Node1 . none) (Node2 . none) (Node3 . none) (Options . 3 Arc Nodes) (Radius1 . 0) (Radius2 . 0))
 VolumeFill : hexcore
Create new external boundaries.

---------------- A refinement region was added with the size 24
S_CreateRefinementRegions:
 RefinementRegionsName : local-refinement-farfield
 CreationMethod : Box
 BOIMaxSize : 48
 BOISizeName : local-refinement-farfield
 SelectionType : label
 ZoneSelectionList : ()
 ZoneLocation : ()
 LabelSelectionList : ()
 ObjectSelectionList : ()
 ZoneSelectionSingle : ()
 ObjectSelectionSingle : ()
 BoundingBoxObject : (__map__ (SizeRelativeLength . Directly specify coordinates) (Xmax . 0) (XmaxRatio . 0.1) (Xmin . -180) (XminRatio . 0.1) (Ymax . 700) (YmaxRatio . 0.1) (Ymin . -300) (YminRatio . 0.1) (Zmax . 250) (ZmaxRatio . 0.1) (Zmin . 0.2) (ZminRatio . 0.1))
 OffsetObject : (__map__ (AspectRatio . 5) (BoundaryLayerHeight . 192) (BoundaryLayerLevels . 1) (CrossWakeGrowthFactor . 1.1) (DefeaturingSize . 8) (EdgeSelectionList) (FirstHeight . 0.01) (FlipDirection . #f) (FlowDirection . X) (LastRatioPercentage . 20) (MptMethodType . Automatic) (NumberOfLayers . 4) (OffsetMethodType . uniform) (Rate . 1.2) (ShowCoordinates . #t) (WakeGrowthFactor . 2) (WakeLevels . 1) (X . 0) (Y . 0) (Z . 0))
 CylinderObject : (__map__ (HeightBackInc . 0) (HeightFrontInc . 0) (HeightNode . none) (Node1 . none) (Node2 . none) (Node3 . none) (Options . 3 Arc Nodes) (Radius1 . 0) (Radius2 . 0))
 VolumeFill : hexcore
Create new external boundaries.

---------------- A refinement region was added with the size 48

---- Warning--- Note that size controls based on edges cannot be used in a Size Control File

---------------- A curvature angle of 12 was added to the edges of curvature_chasis

---------------- A curvature angle of 12 was added to  curvature_chasis

---- Warning--- Note that size controls based on edges cannot be used in a Size Control File

---------------- A curvature angle of 9 was added to the edges of curvature_aero

---------------- A curvature angle of 9 was added to  curvature_aero
(cx-gui-do cx-activate-item "MenuBar*WriteSubMenu*Mesh...")
(cx-gui-do cx-set-file-dialog-entries "Select File" '( "V2-final-trail.msh.h5") "CFF Mesh Files (*.msh.h5 )")
(cx-gui-do cx-activate-item "Question*OK")
Writing "C:/Users/USER/Documents/Project CES/Anduril F1/Ansys Fluent CFD/CFD - Trail 3 (V2 UoSM)/Export/V2-final-trail.msh.h5" ...
writing 11 node zones
writing 31 edge zones 
writing 19 face zones 
writing node curvature data...
done.Copying the required intermediate mesh files into C:\\Users\\USER\\Documents\\Project CES\\Anduril F1\\Ansys Fluent CFD\\CFD - Trail 3 (V2 UoSM)\\Export\\V2-final-trail_workflow_files
Done.

---------------- A curvature angle of 18 was added to  curvature_wheels
Writing "C:\Users\USER\Documents\Project CES\Anduril F1\Ansys Fluent CFD\CFD - Trail 3 (V2 UoSM)\Export\FM_StarForge-FS_4196\TaskObject3.msh.h5" ...
writing 11 node zones
writing 31 edge zones 
writing 19 face zones 
writing node curvature data...
done.    processing size functions/scoped sizing to create Size Field...

Writing "C:\Users\USER\Documents\Project CES\Anduril F1\Ansys Fluent CFD\CFD - Trail 3 (V2 UoSM)\Export\FM_StarForge-FS_4196\V2-final-trail.sf"...
Writing "C:\Users\USER\Documents\Project CES\Anduril F1\Ansys Fluent CFD\CFD - Trail 3 (V2 UoSM)\Export\FM_StarForge-FS_4196\V2-final-trail.sf"...
Done.


Importing one mesh object per program-controlled and one zone per body ...
    C:\\Program Files\\ANSYS Inc\\ANSYS Student\\v241\\commonfiles\\CPython\\3_10\\winx64\\Release\\python\\..\\Ansys\\TGrid\\CADReaders.py started by USER on StarForge-FS winx64 on Wed Jun 26 21:22:40 2024
    using Python 3.10.9 (remotes/origin/4e018266dafe29ec2836492d71d245fcfd366d07-dirty:4e018266, Jan  3 2) [MSC v.1920 64 bit (AMD64)]
    
    using Ansys.Meshing.FieldMesher build Nov 27 2023 11:54:13
    
    running ANSYS TGrid CADToTGridConverter ...
    setting up parameters ...
    setting up parameters done.
    running conversion ...
    converting 1 file(s) from Workbench to FLTG using output path 'C:\\Users\\USER\\Documents\\Project CES\\Anduril F1\\Ansys Fluent CFD\\CFD - Trail 3 (V2 UoSM)\\Export\\FM_StarForge-FS_4196/out17194081594196.tgf'
    converting file 'V2-final-trail.pmdb' (1 of 1) from Workbench to FLTG using output path 'C:\\Users\\USER\\Documents\\Project CES\\Anduril F1\\Ansys Fluent CFD\\CFD - Trail 3 (V2 UoSM)\\Export\\FM_StarForge-FS_4196'
    importing data ...
    importing meshing model from PartMgr from file 'C:/Users/USER/Documents/Project CES/Anduril F1/Ansys Fluent CFD/CFD - Trail 3 (V2 UoSM)/Export/V2-final-trail.pmdb' ...
    setting enclosure and symmetry processing to False
    setting transfer named selections to True
    setting named selection prefixes to ''
    setting mixed import resolution type to 'SolidAndSurface'
    setting target application to 'FluentMeshing'
    initializing part manager from file ...
    processing assembly 'C:\\Users\\USER\\Documents\\Project CES\\Anduril F1\\Ansys Fluent CFD\\CFD - Trail 3 (V2 UoSM)\\Discovery_File.dsco' with ID 1 and reference key '<?xml version="1.0" encoding="utf-16"?>
    <IdTable xmlns:xsd="http://www.w3.org/2001/XMLSchema" xmlns:xsi="http://www.w3.org/2001/XMLSchema-instance">
      <Table>
        <Entry>
          <AssemblyVersionInfo>
            <AssemblySavedVersion>2147483647</AssemblySavedVersion>
            <AssemblySavedBuildDate>2147483647</AssemblySavedBuildDate>
            <MigrateToCompressedLabelIsDisabled>false</MigrateToCompressedLabelIsDisabled>
          </AssemblyVersionInfo>
          <Text>~sO_~iI57b6b124-317d-4f39-b13b-ec3693ca0d06.6398_#~oE57b6b124-317d-4f39-b13b-ec3693ca0d06.6394_#_</Text>
          <Id>10000</Id>
          <IsExploded>false</IsExploded>
        </Entry>
      </Table>
      <AssemblyVersionInfo>
        <AssemblySavedVersion>2147483647</AssemblySavedVersion>
        <AssemblySavedBuildDate>2147483647</AssemblySavedBuildDate>
        <MigrateToCompressedLabelIsDisabled>false</MigrateToCompressedLabelIsDisabled>
      </AssemblyVersionInfo>
    </IdTable>'
    length unit = [m]
    processing part 'Enclosure' with ID 3
    processing named selection 'Inlet'
    processing named selection 'Outlet'
    processing named selection 'Top wall'
    processing named selection 'Side wall'
    processing named selection 'Symmetry'
    processing named selection 'Ground'
    processing named selection 'Front Wing'
    processing named selection 'Rear Wing'
    processing named selection 'Rear Wheel Patch'
    processing named selection 'Front Wheel Patch'
    processing named selection 'Rear MRF'
    processing named selection 'Front MRF'
    processing named selection 'Chasis'
    processing data ...
    loading size function background grid from file 'C:\\Users\\USER\\Documents\\Project CES\\Anduril F1\\Ansys Fluent CFD\\CFD - Trail 3 (V2 UoSM)\\Export\\FM_StarForge-FS_4196\\\\V2-final-trail.sf' ...
    reading size function background grid file 'C:\\Users\\USER\\Documents\\Project CES\\Anduril F1\\Ansys Fluent CFD\\CFD - Trail 3 (V2 UoSM)\\Export\\FM_StarForge-FS_4196\\\\V2-final-trail.sf' ...
     Read 450097 vertices
    initializing size function background grid done in 0.236 [s]
    Error: Breakout detected
    
    Error: Front could not be closed at e1069 (-35.920273 -102.467663 14.052385)
    
    Error: Front could not be closed at e1119 (-3.440821 -111.940465 5.002171)
    
    tessellating 240 faces done in 25.487 [s]
    removing named collections of entities ...
    removing named collections of entities stopped, no named collections selected.
    analyzing feature edges ...
    detecting feature edges, feature angle = 40 [deg] ...
        Data information
            Meshing model
                Attributes:
                    'LengthUnit': '[mm]'
                Entity summary:
                    Collection: 13
                    Component : 2
                    Body      : 1
                    Shell     : 2
                    Face      : 240
                    Loop      : 261
                    Edge      : 605
                    Vertex    : 379
                    Surface   : 240
                    Curve     : 605
                Tessellation summary:
                    Face facets  : 244482
                    Edge segments: 10395
                Bounding box:
                    (-329.9761047363281, -508.7127990722656, -0.8299999833106995) x (8.715007425053045e-05, 1991.8076171875, 342.9836120605469)
                Assembly component hierarchy:
                    'C:\\Users\\USER\\Documents\\Project CES\\Anduril F1\\Ansys Fluent CFD\\CFD - Trail 3 (V2 UoSM)\\Discovery_File.dsco'
                      'Enclosure'
                NamedCollections:
                    'Inlet'
                    'Outlet'
                    'Top wall'
                    'Side wall'
                    'Symmetry'
                    'Ground'
                    'Front Wing'
                    'Rear Wing'
                    'Rear Wheel Patch'
                    'Front Wheel Patch'
                    'Rear MRF'
                    'Front MRF'
                    'Chasis'
    
    
    exporting FLTG data to file 'C:\\Users\\USER\\Documents\\Project CES\\Anduril F1\\Ansys Fluent CFD\\CFD - Trail 3 (V2 UoSM)\\Export\\FM_StarForge-FS_4196\\out17194081594196.tgf' ...
    writing face-based mesh file 'C:\\Users\\USER\\Documents\\Project CES\\Anduril F1\\Ansys Fluent CFD\\CFD - Trail 3 (V2 UoSM)\\Export\\FM_StarForge-FS_4196\\out17194081594196.tgf' ...
    ======== Exported Data ========
    Entity summary:
        Object       : 1
        Object region: 15
        Zone         : 40
    
    running conversion done.
    running ANSYS TGrid CADToTGridConverter done.
    ran ANSYS TGrid CADToTGridConverter in 26.700 [s]
        ======== Command Execution Log Manager ========
        Number of execution logs: 1
        MeshingModelCommandExecLog
            Label = 'ANSYS_MESH_FM_WARNING_ID_MESHINGMODEL_TESSELLATION_CREATION_ENTITIES_WHERE_CONFORMAL_TESSELLATION_FAILED'
            EntityIDs = (1637)
            Points = ()
    
    

Reading "C:\Users\USER\Documents\Project CES\Anduril F1\Ansys Fluent CFD\CFD - Trail 3 (V2 UoSM)\Export\FM_StarForge-FS_4196/out17194081594196.tgf"...
Reading "C:\Users\USER\Documents\Project CES\Anduril F1\Ansys Fluent CFD\CFD - Trail 3 (V2 UoSM)\Export\FM_StarForge-FS_4196/out17194081594196.tgf"...
nodes: 125819
edges: 3536
faces: 244482
cells: 0
reading 125819 storage data (id 1, type 41, double precision binary).
appending mesh...
done.
generating pointers...done.
extracting boundary entities...
 169753 boundary nodes.
 327746 boundary faces.
 33 boundary face zones.
done.

Reading "C:\Users\USER\Documents\Project CES\Anduril F1\Ansys Fluent CFD\CFD - Trail 3 (V2 UoSM)\Export\FM_StarForge-FS_4196\\V2-final-trail.sf"...
Reading "C:\Users\USER\Documents\Project CES\Anduril F1\Ansys Fluent CFD\CFD - Trail 3 (V2 UoSM)\Export\FM_StarForge-FS_4196\\V2-final-trail.sf"...
 Read 450097 vertices
5 boundary nodes.
0 faces removed.
removed 60 faces.

Found overlapping faces sharing edge bn445-bn572 (-35.552315 -101.945530 14.099691).
Warning: 
The regions may not be computed correctly.
Found overlapping faces sharing edge bn572-bn445 (-35.552315 -101.945530 14.099691).
Warning: 
The regions may not be computed correctly.
Found overlapping faces sharing edge bn634-bn492 (-35.504381 -101.913383 14.086021).
Warning: 
The regions may not be computed correctly.
Found overlapping faces sharing edge bn492-bn634 (-35.504381 -101.913383 14.086021).
Warning: 
The regions may not be computed correctly.
Error: The surface meshing was not successful. Import the CAD outside the workflow and use Diagnostics to identify problematic faces
Error Object: #f

Error: state/object/execute-command:Exception encountered in S_ExecuteTask: The surface meshing was not successful. Import the CAD outside the workflow and use Diagnostics to identify problematic faces
Error Object: ()
(cx-gui-do cx-activate-item "Messages*PanelButtons*PushButton1(Close)")
(cx-use-window-id 51)
(cx-set-camera-relative '(645.297 -2055.35 407.782) '(0 0 0) '(0.580576 0.288931 0.537663) 0 0)
(cx-use-window-id 51)
(cx-set-camera-relative '(-631.439 5010.03 -3368.6) '(0 0 0) '(-0.647302 -0.447472 -0.652406) 0 0)
(cx-gui-do cx-activate-item "Ribbon*Frame1*Frame2(Task Page)*Table1*Table3(Mesh)*PushButton1(  Check)")
(cx-gui-do cx-activate-item "MenuBar*PopupMenuCheck*Perform Mesh Check")

----------------------------------------
Mesh Check Scope   : 1 Objects, 13 Face Zones, 0 Cell Zones
Objects            : (enclosure-enclosure11)
----------------------------------------
Domain extents.
  x-coordinate: min = -3.299761e+02, max = 8.715007e-05.
  y-coordinate: min = -5.087128e+02, max = 1.991808e+03.
  z-coordinate: min = -8.300000e-01, max = 3.429836e+02.
Volume statistics.
Face area statistics.
   minimum face area: 1.888260e-04.
   maximum face area: 9.385725e+02.
   average face area: 1.480415e+01.
Checking number of nodes per edge.
Checking number of nodes per face.
Checking number of nodes per cell.
Checking number of faces/neighbors per cell.
Checking cell faces/neighbors.
Checking isolated cells.
Checking face handedness.
Checking periodic face pairs.
Checking face children.
Checking face zone boundary conditions.
Checking for invalid node coordinates.
Checking poly cells.
Checking zones.
Checking neighborhood.
Checking modified centroid.
Done.
----------------------------------------(newline)


Meshing> (cx-gui-do cx-activate-item "Ribbon*Frame1*Frame2(Task Page)*Table1*Table3(Mesh)*PushButton2(  Quality)")
(cx-gui-do cx-activate-item "Ribbon*Frame1*Frame2(Task Page)*Table1*Table3(Mesh)*PushButton1(  Check)")
(cx-gui-do cx-activate-item "MenuBar*PopupMenuCheck*Perform Diagnostics Summary")

----------------------------------------
Diagnostics Scope  : 1 Objects, 13 Face Zones, 0 Cell Zones
Objects            : (enclosure-enclosure11)
----------------------------------------
Surface Diagnostics :

Total Number of Faces          =   244422
Maximum Skewness               =   0.9935
---- Warning--- maximum skewness above 0.99 is identified...

-------------------- ------------------------- --------------------------------------------- -------------------- --------------------
    maximum-skewness               Entity Name                              Location (x y z)       Face Zone Name      Cell Neighbours
-------------------- ------------------------- --------------------------------------------- -------------------- --------------------
          0.99349731                  bf122678              (-35.263297 -101.80964 12.44759)           front-wing              (#f #f)


Face count (max-face-skewness > 0.99)       =        1
Maximum Aspect Ratio           =    36.15
Number of Free Faces           =       49 --> found on 1 face zone(s)
Number of Multi Faces          =        0
Number of Self Intersections   =     1258 --> found on 2 face zone(s)
Number of Self Proximity       =     1196 --> found on 4 face zone(s)
Number of Point Contacts       =        0
Number of Invalid Normals      =        1
----------------------------------------(newline)


Meshing> (cx-use-window-id 51)
(cx-set-camera-relative '(1060.65 -2333.15 2078.7) '(0 0 0) '(0.452258 0.304837 0.106195) 0 0)
(cx-use-window-id 51)
(cx-set-camera-relative '(147.68 557.296 -1078.45) '(0 0 0) '(-0.163391 -0.0829177 -0.0651846) 0 0)
(cx-use-window-id 51)
(cx-set-camera-relative '(-574.689 -1391.73 235.285) '(0 0 0) '(1.19206 -0.37963 0.680953) 0 0)
(cx-gui-do cx-activate-item "Ribbon*Frame1*Frame2(Task Page)*Table1*Table3(Mesh)*PushButton2(  Quality)")
(cx-gui-do cx-activate-item "MenuBar*PopupMenuQuality*Diagnostics Tools...")
(cx-gui-do cx-activate-item "Diagnostics Tools*PanelButtons*PushButton3(Draw)")
(cx-gui-do cx-activate-item "Diagnostics Tools*PanelButtons*PushButton4(Histogram)")
(cx-gui-do cx-activate-item "Diagnostics Tools*PanelButtons*PushButton3(Draw)")
(cx-gui-do cx-activate-item "Diagnostics Tools*Table1*Table6*PushButton2(Compute)")

----------------------------------------
Minimum = 1.1846126e-08, Maximum = 0.99349731, Average = 0.032976148.
Counts: (226883 13879 2423 869 247 70 28 6 10 7)
Total counts in bounds: 244422(newline)


Meshing> (cx-gui-do cx-set-list-selections "Diagnostics Tools*Table1*Table2(Issue)*DropDownList1" '( 2))
(cx-gui-do cx-activate-item "Diagnostics Tools*Table1*Table2(Issue)*DropDownList1")
(cx-gui-do cx-activate-item "Diagnostics Tools*PanelButtons*PushButton3(Draw)")
(cx-gui-do cx-activate-item "Diagnostics Tools*Table1*Table4*PushButton1(Mark)")

--------------- ----------
 Cluster Number Entity Count
--------------- ----------
              1        680
              2        578
(cx-use-window-id 51)
(cx-set-camera-relative '(69.5932 -93.3622 -345.2) '(0 0 0) '(-0.1752 -0.0815078 0.10919) 0 0)
(cx-use-window-id 51)
(cx-set-camera-relative '(-69.4225 75.7757 25.5242) '(0 0 0) '(-0.267613 -0.294906 0.348928) 0 0)
(cx-use-window-id 51)
(cx-set-camera-relative '(-290.111 -83.4494 135.757) '(0 0 0) '(0.408879 -1.15901 -0.127869) 0 0)
(cx-use-window-id 51)
(cx-set-camera-relative '(-74.0144 -200.427 -44.4271) '(0 0 0) '(0.405801 -0.141006 -0.0400254) 0 0)
(cx-gui-do cx-activate-item "Diagnostics Tools*Table1*Table5(Details)*Table2(Cluster Navigation)*PushButton6(List)")

--------------- --------------------------------------------- -------------------- ------------------------- --------------------
    Entity Name                              Location (x y z)             Skewness                 Face zone      Cell Neighbours
--------------- --------------------------------------------- -------------------- ------------------------- --------------------
       bf242217             (-33.24208 22.029932 -0.35870031)          0.027776822                  rear-mrf              (#f #f)
       bf242216            (-29.153938 28.632705 -0.26902949)          0.023024775                  rear-mrf              (#f #f)
       bf219232            (-37.375457 27.477696 -0.49579756)           0.13868891          rear-wheel-patch              (#f #f)
       bf219231            (-23.035743 23.915787 -0.63510114)          0.041783851          rear-wheel-patch              (#f #f)
       bf242121            (-33.836047 23.816378 -0.62199303)         0.0066157432                  rear-mrf              (#f #f)
       bf242118            (-33.871575 28.344815 -0.33494607)         0.0090517241                  rear-mrf              (#f #f)
       bf219273             (-23.238891 26.13886 -0.64972333)          0.036794988          rear-wheel-patch              (#f #f)
       bf219272            (-38.937202 27.003843 -0.56742365)          0.080507296          rear-wheel-patch              (#f #f)
       bf239521            (-39.119059 27.924563 -0.42185013)           0.02020182                  rear-mrf              (#f #f)
       bf239517            (-23.019464 27.503265 -0.49562697)          0.024573496                  rear-mrf              (#f #f)
       bf219111            (-39.193831 24.035588 -0.64432606)          0.003411332          rear-wheel-patch              (#f #f)
       bf219110            (-22.870695 25.454885 -0.68108873)         0.0052584371          rear-wheel-patch              (#f #f)
       bf219119             (-24.205882 27.73401 -0.45518828)         0.0032092715          rear-wheel-patch              (#f #f)
       bf219118            (-30.370584 23.020226 -0.53146496)         0.0019813265          rear-wheel-patch              (#f #f)
       bf240515            (-38.371896 24.524678 -0.67162313)          0.002905906                  rear-mrf              (#f #f)
       bf240501             (-37.53891 22.207233 -0.39526477)          0.021454249                  rear-mrf              (#f #f)
       bf219100            (-39.267166 25.087242 -0.68474847)          0.036187896          rear-wheel-patch              (#f #f)
       bf219099            (-33.542125 27.628301 -0.47172628)           0.13757332          rear-wheel-patch              (#f #f)
       bf219197            (-33.824101 23.582186 -0.59873598)           0.10888793          rear-wheel-patch              (#f #f)
       bf219196            (-22.761122 26.568465 -0.61564911)          0.064399044          rear-wheel-patch              (#f #f)
       bf238263            (-39.578554 25.673908 -0.57136034)         0.0082605287                  rear-mrf              (#f #f)
       bf238262            (-39.587478 24.642803 -0.56564255)         0.0013128616                  rear-mrf              (#f #f)
       bf219271             (-34.187984 23.891196 -0.6291595)          0.024534834          rear-wheel-patch              (#f #f)
       bf219270             (-38.851261 22.91489 -0.51942514)          0.097572516          rear-wheel-patch              (#f #f)
       bf219277            (-38.858485 24.239602 -0.65796174)          0.013298045          rear-wheel-patch              (#f #f)
       bf219276            (-35.240501 23.831602 -0.62353276)         0.0011831095          rear-wheel-patch              (#f #f)
       bf219140             (-38.935562 27.87929 -0.42975667)         0.0072700923          rear-wheel-patch              (#f #f)
       bf219139             (-39.384212 26.513218 -0.6211284)         0.0020018762          rear-wheel-patch              (#f #f)
       bf242116            (-28.084804 21.613911 -0.26411387)          0.033446578                  rear-mrf              (#f #f)
       bf242115            (-33.818152 22.479365 -0.44548068)          0.013223718                  rear-mrf              (#f #f)
       bf237936            (-39.577775 25.331915 -0.58046315)         0.0078093968                  rear-mrf              (#f #f)
       bf237933             (-39.64174 27.880327 -0.27285639)           0.01165329                  rear-mrf              (#f #f)
       bf241249             (-25.47774 28.577623 -0.28170467)         0.0039557164                  rear-mrf              (#f #f)
       bf241242            (-36.049399 27.968158 -0.41186384)          0.011336274                  rear-mrf              (#f #f)
       bf242291            (-32.048528 22.773886 -0.49284426)         0.0097841113                  rear-mrf              (#f #f)
       bf242290            (-32.349753 28.441886 -0.31190527)          0.042347483                  rear-mrf              (#f #f)
       bf219169             (-32.863358 27.68516 -0.46384372)         0.0068048889          rear-wheel-patch              (#f #f)
       bf219167            (-38.901317 22.476569 -0.44642574)         0.0085664473          rear-wheel-patch              (#f #f)
       bf219339            (-29.905521 24.386549 -0.66302673)          0.036403618          rear-wheel-patch              (#f #f)
       bf219338            (-33.613349 24.777836 -0.67159117)          0.013371356          rear-wheel-patch              (#f #f)
       bf219269            (-24.843434 23.523918 -0.59504991)         0.0028951931          rear-wheel-patch              (#f #f)
       bf219268             (-25.802609 26.68691 -0.59825895)          0.011811324          rear-wheel-patch              (#f #f)
       bf219267            (-23.009135 24.762963 -0.68005969)          0.090617911          rear-wheel-patch              (#f #f)
       bf219266             (-34.10394 26.744768 -0.59022136)          0.040118661          rear-wheel-patch              (#f #f)
       bf219325            (-26.704699 23.722797 -0.61181556)         0.0034475219          rear-wheel-patch              (#f #f)
       bf219324             (-23.286981 27.183019 -0.5435568)          0.051669879          rear-wheel-patch              (#f #f)
       bf219105            (-33.988019 27.604749 -0.47620511)           0.11821052          rear-wheel-patch              (#f #f)
       bf219104            (-29.797677 27.513355 -0.49066753)           0.11823699          rear-wheel-patch              (#f #f)
       bf241115            (-37.304918 24.523997 -0.67005507)          0.031853797                  rear-mrf              (#f #f)
       bf241102             (-25.541948 27.90718 -0.42322931)         0.0035894318                  rear-mrf              (#f #f)
       bf242181            (-33.401324 27.703775 -0.46045684)          0.071978524                  rear-mrf              (#f #f)
       bf242180            (-33.810525 20.88274 -0.066429777)          0.063335484                  rear-mrf              (#f #f)
       bf219279            (-33.316267 26.912799 -0.57422207)           0.10004926          rear-wheel-patch              (#f #f)
       bf219278            (-23.164193 22.998777 -0.53210281)           0.13190775          rear-wheel-patch              (#f #f)
       bf242307              (-30.829114 29.0242 -0.16882024)         0.0025872083                  rear-mrf              (#f #f)
       bf242306            (-30.805884 22.491204 -0.44554598)             0.044953                  rear-mrf              (#f #f)
       bf240313            (-23.930223 25.208854 -0.68331769)          0.016951887                  rear-mrf              (#f #f)
       bf240312            (-38.168274 22.655873 -0.47802935)          0.050903283                  rear-mrf              (#f #f)
       bf241699             (-35.40618 26.511173 -0.61478594)          0.085705692                  rear-mrf              (#f #f)
       bf241697            (-26.784465 22.312216 -0.41468117)          0.011682179                  rear-mrf              (#f #f)
       bf242305           (-32.215204 29.283231 -0.095580064)           0.03935035                  rear-mrf              (#f #f)
       bf242304            (-31.026663 29.261634 -0.10377386)          0.030409141                  rear-mrf              (#f #f)
       bf240110            (-23.737815 25.418291 -0.68154985)           0.10837295                  rear-mrf              (#f #f)
       bf240109            (-38.756054 26.629529 -0.60890796)          0.018041215                  rear-mrf              (#f #f)
       bf240793            (-24.559365 25.175808 -0.68221477)          0.051531273                  rear-mrf              (#f #f)
       bf240786            (-37.460227 27.081419 -0.55608991)          0.053212963                  rear-mrf              (#f #f)
       bf219281            (-23.871452 27.117782 -0.55087281)          0.010371531          rear-wheel-patch              (#f #f)
       bf219280            (-27.230273 26.659963 -0.60068686)          0.020370535          rear-wheel-patch              (#f #f)
       bf242016             (-28.208571 25.584707 -0.6707793)        0.00055002283                  rear-mrf              (#f #f)
       bf242014            (-27.783115 27.146112 -0.54485878)         0.0061929951                  rear-mrf              (#f #f)
       bf219230            (-24.571761 27.088754 -0.55440173)         0.0055296071          rear-wheel-patch              (#f #f)
       bf219229            (-23.256841 22.697525 -0.48472467)          0.093186998          rear-wheel-patch              (#f #f)
       bf219155            (-31.322605 22.962768 -0.52370577)           0.02039737          rear-wheel-patch              (#f #f)
       bf219154            (-31.816414 27.248197 -0.53047842)         0.0040572192          rear-wheel-patch              (#f #f)
       bf219222            (-29.090162 26.825408 -0.58502247)           0.01475942          rear-wheel-patch              (#f #f)
       bf219221             (-37.571609 22.775027 -0.4952336)          0.016268403          rear-wheel-patch              (#f #f)
       bf219128            (-22.912122 22.296899 -0.41364141)          0.011937482          rear-wheel-patch              (#f #f)
       bf219127            (-25.427342 27.434896 -0.50448798)          0.027320689          rear-wheel-patch              (#f #f)
       bf237840           (-39.592744 21.194644 -0.022763486)          0.007838574                  rear-mrf              (#f #f)
       bf237838            (-39.527846 23.031206 -0.46398169)          0.015259249                  rear-mrf              (#f #f)
       bf242253            (-29.758761 21.311163 -0.18741245)         0.0043109021                  rear-mrf              (#f #f)
       bf242252              (-31.899102 21.0087 -0.10422703)         0.0026744109                  rear-mrf              (#f #f)
       bf219353            (-29.238808 24.749799 -0.67198202)          0.089077666          rear-wheel-patch              (#f #f)
       bf219352              (-23.602289 27.001117 -0.566133)          0.072951221          rear-wheel-patch              (#f #f)
       bf219201            (-23.533956 27.695663 -0.46247935)          0.037740778          rear-wheel-patch              (#f #f)
       bf219200            (-39.370885 25.737319 -0.67259907)          0.099052087          rear-wheel-patch              (#f #f)
       bf219307            (-37.233249 26.579324 -0.61020466)          0.021153055          rear-wheel-patch              (#f #f)
       bf219306             (-22.903332 23.61971 -0.60841848)           0.12961852          rear-wheel-patch              (#f #f)
       bf219259            (-36.501901 23.295401 -0.56743513)          0.035858544          rear-wheel-patch              (#f #f)
       bf219258             (-23.789139 23.096389 -0.5445232)         0.0080155291          rear-wheel-patch              (#f #f)
       bf241136            (-36.430638 29.347583 -0.07846848)          0.011250704                  rear-mrf              (#f #f)
       bf241135            (-25.520683 27.147975 -0.54538781)         0.0042407574                  rear-mrf              (#f #f)
       bf219064            (-38.323974 28.213427 -0.36310629)         0.0023784225          rear-wheel-patch              (#f #f)
       bf219063            (-26.434826 22.111238 -0.37451836)          0.037357139          rear-wheel-patch              (#f #f)
       bf237589            (-22.726353 22.064472 -0.19200991)         0.0062648088                  rear-mrf              (#f #f)
       bf237588             (-22.726353 21.193209 0.25118078)          0.029878474                  rear-mrf              (#f #f)
       bf242315             (-31.042208 27.826594 -0.4363367)          0.053358812                  rear-mrf              (#f #f)
       bf242314            (-31.441883 29.225278 -0.11434174)          0.030707632                  rear-mrf              (#f #f)
       bf219249            (-34.720048 23.605576 -0.60107152)          0.021536483          rear-wheel-patch              (#f #f)
       bf219248            (-25.312051 23.360189 -0.57608885)         0.0091264992          rear-wheel-patch              (#f #f)
       bf219157             (-39.286529 26.32569 -0.63732281)          0.048480552          rear-wheel-patch              (#f #f)
       bf219156            (-35.085781 27.273577 -0.52738292)         0.0012006668          rear-wheel-patch              (#f #f)
       bf219386            (-38.309246 24.812071 -0.67943795)          0.048912633          rear-wheel-patch              (#f #f)
       bf219385            (-36.908775 25.733507 -0.66855044)          0.019408895          rear-wheel-patch              (#f #f)
       bf240479            (-38.536196 24.658868 -0.67668756)           0.12586929                  rear-mrf              (#f #f)
       bf240477            (-24.322283 22.086173 -0.36860676)         0.0083597097                  rear-mrf              (#f #f)
       bf242319             (-30.812124 28.33425 -0.33645314)        0.00088903413                  rear-mrf              (#f #f)
       bf242318             (-31.57116 27.856591 -0.43051302)           0.05866618                  rear-mrf              (#f #f)
       bf219416                (-38.166 24.76098 -0.67776588)           0.14671509          rear-wheel-patch              (#f #f)
       bf219415            (-26.071606 24.628932 -0.66944247)          0.026691818          rear-wheel-patch              (#f #f)
       bf237665            (-22.726353 25.134113 -0.46962282)        0.00037696745                  rear-mrf              (#f #f)
       bf237664            (-22.726353 28.439044 0.033022971)         0.0052606749                  rear-mrf              (#f #f)
       bf242195            (-28.969735 28.934829 -0.19203445)         0.0017420446                  rear-mrf              (#f #f)
       bf242194            (-33.275154 27.327722 -0.51966659)          0.028653002                  rear-mrf              (#f #f)
       bf241579             (-26.936825 26.66556 -0.60183751)         0.0047333351                  rear-mrf              (#f #f)
       bf241568            (-26.861256 21.051982 -0.11697919)         0.0038574425                  rear-mrf              (#f #f)
       bf241134             (-36.72414 21.327844 -0.19263174)          0.020437596                  rear-mrf              (#f #f)
       bf241124            (-25.133495 25.247802 -0.68232517)           0.15854761                  rear-mrf              (#f #f)
       bf219253             (-23.03857 26.959483 -0.57222269)          0.013467109          rear-wheel-patch              (#f #f)
       bf219252             (-32.742081 26.85149 -0.58257212)          0.077122311          rear-wheel-patch              (#f #f)
       bf219247            (-26.268611 26.825727 -0.58314952)         0.0069549121          rear-wheel-patch              (#f #f)
       bf219246            (-23.139154 24.595203 -0.67442292)         0.0061271485          rear-wheel-patch              (#f #f)
       bf242321            (-30.814101 21.660275 -0.27409459)           0.09548387                  rear-mrf              (#f #f)
       bf242320            (-31.943656 28.968156 -0.18436828)         0.0080702012                  rear-mrf              (#f #f)
       bf219078            (-30.067269 27.252467 -0.53040027)          0.004972303          rear-wheel-patch              (#f #f)
       bf219077              (-27.75584 27.46973 -0.49707991)          0.019093305          rear-wheel-patch              (#f #f)
       bf219363            (-33.414146 25.893569 -0.65748653)          0.033649532          rear-wheel-patch              (#f #f)
       bf219362            (-38.626374 23.363945 -0.57965392)          0.025541132          rear-wheel-patch              (#f #f)
       bf219144             (-37.094003 27.52465 -0.48855423)          0.057028809          rear-wheel-patch              (#f #f)
       bf219143            (-22.733832 23.057838 -0.54056105)           0.11828734          rear-wheel-patch              (#f #f)
       bf219317            (-23.614938 25.648687 -0.67449506)          0.013359727          rear-wheel-patch              (#f #f)
       bf219316            (-29.313239 25.717899 -0.66779675)           0.11583374          rear-wheel-patch              (#f #f)
       bf240177            (-37.870123 21.502016 -0.23718653)         0.0099572498                  rear-mrf              (#f #f)
       bf240176            (-38.279027 23.132981 -0.55074669)          0.089300043                  rear-mrf              (#f #f)
       bf219283             (-23.115577 27.46629 -0.49995622)           0.36135217          rear-wheel-patch              (#f #f)
       bf219282            (-31.919309 26.558201 -0.60951122)          0.071436923          rear-wheel-patch              (#f #f)
       bf239791            (-23.251466 23.942938 -0.63725448)         0.0097698322                  rear-mrf              (#f #f)
       bf239788              (-23.370923 25.31222 -0.6836397)          0.082199736                  rear-mrf              (#f #f)
       bf242025             (-34.180321 28.51605 -0.29594099)          0.028535929                  rear-mrf              (#f #f)
       bf242017             (-34.480071 23.86824 -0.62658231)         0.0073884058                  rear-mrf              (#f #f)
       bf241496             (-36.326215 25.978628 -0.6584084)          0.062947765                  rear-mrf              (#f #f)
       bf241494            (-36.375991 25.304426 -0.68192182)          0.062852074                  rear-mrf              (#f #f)
       bf218886               (-32.44537 22.007031 -0.352145)          0.021314585          rear-wheel-patch              (#f #f)
       bf218879            (-39.377891 28.326354 -0.33856906)           0.23308501          rear-wheel-patch              (#f #f)
       bf219293              (-38.905702 23.421111 -0.586556)          0.020636764          rear-wheel-patch              (#f #f)
       bf219292            (-24.176276 26.906221 -0.57725727)         0.0012488782          rear-wheel-patch              (#f #f)
       bf219103            (-37.835362 22.455444 -0.44266734)          0.038483615          rear-wheel-patch              (#f #f)
       bf219101            (-28.645685 22.728537 -0.48656229)           0.10634123          rear-wheel-patch              (#f #f)
       bf219123             (-25.762812 22.669302 -0.4774966)         0.0066953792          rear-wheel-patch              (#f #f)
       bf219122            (-35.521517 27.486474 -0.49479462)          0.010971599          rear-wheel-patch              (#f #f)
       bf239766            (-38.946554 25.274865 -0.68386554)           0.11777672                  rear-mrf              (#f #f)
       bf239763            (-38.754395 27.439168 -0.50593219)          0.082330268                  rear-mrf              (#f #f)
       bf219113            (-28.136069 27.257246 -0.52963835)         0.0029009419          rear-wheel-patch              (#f #f)
       bf219112            (-29.051529 27.294631 -0.52473703)          0.012502843          rear-wheel-patch              (#f #f)
       bf219424             (-24.30686 25.618699 -0.67444111)          0.064288689          rear-wheel-patch              (#f #f)
       bf219423            (-37.006733 24.962108 -0.67951778)          0.068413352          rear-wheel-patch              (#f #f)
       bf219343            (-35.876889 24.678093 -0.67143905)          0.020414859          rear-wheel-patch              (#f #f)
       bf219342            (-24.724552 24.028213 -0.64058505)          0.020236958          rear-wheel-patch              (#f #f)
       bf218935            (-29.620243 22.028845 -0.35662251)          0.023378855          rear-wheel-patch              (#f #f)
[...]
(cx-use-window-id 51)
(cx-set-camera-relative '(2.02528 0.123749 -1.0371) '(0 0 0) '(-0.016419 -0.140677 -0.0488459) 0 0)
(cx-use-window-id 51)
(cx-set-camera-relative '(0.131363 0.0248566 -0.1865) '(0 0 0) '(-0.0126008 -0.0559922 -0.0175332) 0 0)
(cx-use-window-id 51)
(cx-set-camera-relative '(0.0366898 -0.000595093 -0.0343904) '(0 0 0) '(-0.00676781 -0.0284379 -0.00670233) 0 0)
(cx-use-window-id 51)
(cx-set-camera-relative '(0.613136 -0.129471 -0.330911) '(0 0 0) '(-0.0400011 -0.126408 -0.0246659) 0 0)
(cx-use-window-id 51)
(handle-key "control ??")
(cx-use-window-id 51)
(dolly-camera -0.350513 -0.118095 0)
(cx-use-window-id 51)
(handle-key "control ??")
(cx-use-window-id 51)
(dolly-camera -0.207207 -0.0695953 0)
(cx-use-window-id 51)
(cx-set-camera-relative '(0.442871 -0.154961 -0.250808) '(0 0 0) '(-0.0353271 -0.081873 -0.0117877) 0 0)
(cx-use-window-id 51)
(handle-key "control ??")
(cx-use-window-id 51)
(dolly-camera -0.347755 -0.139992 0)
(cx-use-window-id 51)
(handle-key "control ??")
(cx-use-window-id 51)
(cx-set-camera-relative '(0.781055 -0.525307 -0.540681) '(0 0 0) '(-0.202931 -0.294802 -0.00676954) 0 0)
(cx-use-window-id 51)
(handle-key "control ??")
(cx-use-window-id 51)
(dolly-camera -0.115402 -0.121758 0)
(cx-use-window-id 51)
(handle-key "control ??")
(cx-use-window-id 51)
(dolly-camera -0.10437 -0.105881 0)
(cx-use-window-id 51)
(dolly-camera -0.0721245 -0.0739517 0)
(cx-use-window-id 51)
(cx-set-camera-relative '(0.215347 -0.250107 -0.156522) '(0 0 0) '(-0.086867 -0.0818587 0.0113183) 0 0)
(cx-use-window-id 51)
(handle-key "control ??")
(cx-use-window-id 51)
(dolly-camera -0.0842514 -0.122421 0)
(cx-use-window-id 51)
(handle-key "control ??")
(cx-use-window-id 51)
(dolly-camera -0.0520744 -0.0767365 0)
(cx-use-window-id 51)
(cx-set-camera-relative '(0.323006 -0.576553 -0.30549) '(0 0 0) '(-0.195728 -0.131471 0.0412014) 0 0)
(cx-use-window-id 51)
(handle-key "control ??")
(cx-use-window-id 51)
(dolly-camera 0.656219 -0.511604 0)
(cx-use-window-id 51)
(handle-key "control ??")
(cx-use-window-id 51)
(dolly-camera -0.0869942 -0.189049 0)
(cx-use-window-id 51)
(cx-set-camera-relative '(0.171959 -0.718269 -0.347482) '(0 0 0) '(-0.214428 -0.0833272 0.0661115) 0 0)
(cx-use-window-id 51)
(cx-set-camera-relative '(-0.0846176 0.417862 0.213438) '(0 0 0) '(0.172478 0.0661638 -0.0613734) 0 0)
(cx-gui-do cx-set-text-entry "Ribbon*Frame1*Frame2(Task Page)*Table1*Table3(Bounds)*TextEntry2(Selection)" "bn572")
(cx-gui-do cx-activate-item "Ribbon*Frame1*Frame2(Task Page)*Table1*Table3(Bounds)*TextEntry2(Selection)")
(cx-gui-do cx-activate-item "Ribbon*Frame1*Frame2(Task Page)*Table1*Table3(Bounds)*TextEntry2(Selection)")
(cx-gui-do cx-activate-item "Ribbon*Frame1*Frame2(Task Page)*Table1*Table3(Bounds)*TextEntry2(Selection)")
(cx-gui-do cx-activate-item "Ribbon*Frame1*Frame2(Task Page)*Table1*Table3(Bounds)*TextEntry2(Selection)")
(cx-gui-do cx-activate-item "Ribbon*Frame1*Frame2(Task Page)*Table1*PushButton1(Examine)")
(cx-gui-do cx-activate-item "Ribbon*Frame1*Frame2(Task Page)*Table1*PushButton1(Mouse Probe Function)")
(cx-gui-do cx-activate-item "Ribbon*Frame1*Frame2(Task Page)*Table1*PushButton1(Display)")
(cx-gui-do cx-activate-item "Ribbon*Frame1*Frame2(Task Page)*Table1*PushButton1(Selection Helper)")
(cx-gui-do cx-activate-item "Ribbon*Frame1*Frame2(Task Page)*Table1*PushButton1(Patch Options)")
(cx-gui-do cx-activate-item "Ribbon*Frame1*Frame2(Task Page)*Table1*PushButton1(Examine)")
(cx-gui-do cx-activate-item "Ribbon*Frame1*Frame2(Task Page)*Table1*PushButton1(Display)")
(cx-gui-do cx-activate-item "MenuBar*MeshMenu*Manage...")
(cx-gui-do cx-activate-item "Manage Cell Zones*PanelButtons*PushButton2(Close)")
(cx-gui-do cx-activate-item "Ribbon*Frame1*Frame2(Task Page)*Table1*Table3(Mesh)*PushButton2(  Quality)")
(cx-use-window-id 51)
zone id: 230, name: front-wing, type: wall, count: 94434
(cx-use-window-id 51)
(cx-gui-do cx-activate-item "Ribbon*Frame1*Frame2(Task Page)*Table1*PushButton1(Mouse Probe Function)")
(cx-use-window-id 51)
(cx-gui-do cx-activate-item "MenuBar*BoundaryMenu*Intersect...")
(cx-gui-do cx-activate-item "Intersect Boundary Zones*PanelButtons*PushButton1(Close)")
(cx-use-window-id 51)
(cx-set-camera-relative '(-220.328 112.498 90.4147) '(0 0 0) '(0.587942 1.1116 0.0229833) 0 0)
(cx-use-window-id 51)
(cx-set-camera-relative '(5.99452 -55.5946 102.838) '(0 0 0) '(-0.171998 0.328318 0.0220637) 0 0)
(cx-use-window-id 51)
zone not found.
(cx-gui-do cx-activate-item "ToolBar*Filter*zone")
(cx-gui-do cx-activate-item "ToolBar*Context*hide")
(cx-gui-do cx-activate-item "ToolBar*Context*undo")
(cx-use-window-id 51)
zone not found.
(cx-gui-do cx-activate-item "ToolBar*Pointer*rotate")
(cx-gui-do cx-activate-item "ToolBar*Pointer*rotate")
(cx-gui-do cx-activate-item "ToolBar*Pointer*boxselect")
(cx-use-window-id 51)
zone not found.
(cx-use-window-id 51)
(handle-key "control ??")
(cx-use-window-id 51)
(handle-key "control h")
(display-hotkey-help tg-key-map)
f1 --> Draw Cells based on Face/Node Selections
f2 --> Clear Selections
f3 --> Toggle Right Mouse Button
f4 --> Toggle Selection Method
f5 --> Create
f6 --> Smooth
f7 --> Split
f8 --> Swap
f9 --> Merge Entities
f10 --> Show/Hide Clipping Plane Triad
f11 --> Skew/Mark
f12 --> Undo
control a --> Auto Scale
control b --> Object Filter
control c --> Cell Filter
control d --> Compute Distance
control e --> Edge Filter
control f --> Face Filter
control g --> Draw face zones connected to entities
control h --> Print This Help
control i --> Entity Information
control j --> Collapse
control k --> Remove Gaps
control l --> Centroid
control n --> Node Filter
control o --> Rezone
control p --> Project
control r --> Auto Patch zones/Repair by filling holes
control s --> Set plane, line or zone as target
control t --> Miscellaneous tools
control u --> Clear selected marked faces.
control v --> Move nodes
control w --> Delete nodes/faces/zones/objects without confirm
control x --> Position Filter
control y --> Size Field Size Filter
control z --> Zone Filter
control _ --> Last view
control / --> Insert clipping plane at the centroid of the graphics selection
control [ --> Deselect Last. Escape key also does the same operation.
control shift a --> Show All Hidden
control shift b --> List Selection Mode.
control shift c --> Color Options Mode.
control shift d --> Conditional Display Options Mode.
control shift e --> Show/Hide Edges
control shift f --> Improve Feature Capture
control shift g --> Align Objects
control shift h --> Hide
control shift i --> Isolate
control shift j --> Mark Faces
control shift k --> Primitives
control shift l --> Loop Selection Mode
control shift m --> Merge Zones/Objects
control shift n --> Change Zone/Object Properties
control shift o --> Randomize Colors
control shift r --> Remesh
control shift s --> Separate
control shift t --> Make Zones/Objects Transparent/Opaque
control shift u --> Undo Hide/Isolate
control shift v --> Selects Visible
control shift x --> Explode/Implode Objects
control shift y --> Yank zones to object
control shift z --> Edge Zone Selection Mode
up arrow --> Increase Display Bounds
down arrow --> Decrease Display Bounds
right arrow --> Next Skew/Mark
left arrow --> Clear Skew Faces#f


> (cx-use-window-id 51)
zone not found.
(cx-use-window-id 51)
(handle-key "control ??")
(cx-use-window-id 51)
(handle-key "control ??")
(cx-use-window-id 51)
(handle-key "control shift a")
(show-all-objects)

> (cx-use-window-id 51)
(handle-key "control ??")
(cx-use-window-id 51)
(handle-key "control ??")
(cx-use-window-id 51)
(handle-key "control shift a")
(show-all-objects)

> (cx-use-window-id 51)
(handle-key "control ??")
(cx-use-window-id 51)
(handle-key "control shift a")
(show-all-objects)

> (cx-use-window-id 51)
(handle-key "control [")
/bo mo deselect-last

Error: No Entity to deselect.
Error Object: #f
(cx-use-window-id 51)
(cx-set-camera-relative '(-501.195 -785.75 -271.839) '(0 0 0) '(-0.949599 0.292487 0.793688) 0 0)
(cx-use-window-id 51)
(cx-set-camera-relative '(901.909 -270.954 128.127) '(0 0 0) '(-0.426056 -0.766696 0.338446) 0 0)
(cx-gui-do cx-activate-item "Ribbon*Frame1*Frame2(Task Page)*Table1*Table3(Mesh)*PushButton2(  Quality)")
(cx-gui-do cx-activate-item "MenuBar*PopupMenuQuality*Diagnostics Tools...")
(cx-gui-do cx-activate-item "Diagnostics Tools*Table1*Table6*PushButton2(Compute)")

----------------------------------------
Minimum = 1.1846126e-08, Maximum = 0.99632751, Average = 0.032972448.
Counts: (225348 13605 2391 766 218 66 81 29 10 8)
Total counts in bounds: 242522(newline)


Meshing> (cx-gui-do cx-activate-item "Diagnostics Tools*PanelButtons*PushButton3(Draw)")
(cx-gui-do cx-activate-item "Messages*PanelButtons*PushButton1(Close)")
(cx-gui-do cx-activate-item "Diagnostics Tools*PanelButtons*PushButton1(Close)")
Reading "C:\Users\USER\Documents\Project CES\Anduril F1\Ansys Fluent CFD\CFD - Trail 3 (V2 UoSM)\Export\FM_StarForge-FS_4196\TaskObject3.msh.h5" ...
3D mesh
nodes: 43942
edges: 2300
faces: 83264 
cells: 0 
reading 11 node zones
reading 31 edge zones
reading 19 face zones
generating pointers...done.
extracting boundary entities...
 43942 boundary nodes.
 83264 boundary faces.
 19 boundary face zones.
done.
analyzing boundary connectivity...done.
Writing "C:\Users\USER\Documents\Project CES\Anduril F1\Ansys Fluent CFD\CFD - Trail 3 (V2 UoSM)\Export\FM_StarForge-FS_4196\TaskObject3.msh.h5" ...
writing 11 node zones
writing 31 edge zones 
writing 19 face zones 
writing node curvature data...
done.    processing size functions/scoped sizing to create Size Field...

Writing "C:\Users\USER\Documents\Project CES\Anduril F1\Ansys Fluent CFD\CFD - Trail 3 (V2 UoSM)\Export\FM_StarForge-FS_4196\V2-final-trail.sf"...
Writing "C:\Users\USER\Documents\Project CES\Anduril F1\Ansys Fluent CFD\CFD - Trail 3 (V2 UoSM)\Export\FM_StarForge-FS_4196\V2-final-trail.sf"...
Done.


Importing one mesh object per program-controlled and one zone per body ...
    C:\\Program Files\\ANSYS Inc\\ANSYS Student\\v241\\commonfiles\\CPython\\3_10\\winx64\\Release\\python\\..\\Ansys\\TGrid\\CADReaders.py started by USER on StarForge-FS winx64 on Wed Jun 26 21:52:47 2024
    using Python 3.10.9 (remotes/origin/4e018266dafe29ec2836492d71d245fcfd366d07-dirty:4e018266, Jan  3 2) [MSC v.1920 64 bit (AMD64)]
    
    using Ansys.Meshing.FieldMesher build Nov 27 2023 11:54:13
    
    running ANSYS TGrid CADToTGridConverter ...
    setting up parameters ...
    setting up parameters done.
    running conversion ...
    converting 1 file(s) from Workbench to FLTG using output path 'C:\\Users\\USER\\Documents\\Project CES\\Anduril F1\\Ansys Fluent CFD\\CFD - Trail 3 (V2 UoSM)\\Export\\FM_StarForge-FS_4196/out17194099664196.tgf'
    converting file 'V2-final-trail.pmdb' (1 of 1) from Workbench to FLTG using output path 'C:\\Users\\USER\\Documents\\Project CES\\Anduril F1\\Ansys Fluent CFD\\CFD - Trail 3 (V2 UoSM)\\Export\\FM_StarForge-FS_4196'
    importing data ...
    importing meshing model from PartMgr from file 'C:/Users/USER/Documents/Project CES/Anduril F1/Ansys Fluent CFD/CFD - Trail 3 (V2 UoSM)/Export/V2-final-trail.pmdb' ...
    setting enclosure and symmetry processing to False
    setting transfer named selections to True
    setting named selection prefixes to ''
    setting mixed import resolution type to 'SolidAndSurface'
    setting target application to 'FluentMeshing'
    initializing part manager from file ...
    processing assembly 'C:\\Users\\USER\\Documents\\Project CES\\Anduril F1\\Ansys Fluent CFD\\CFD - Trail 3 (V2 UoSM)\\Discovery_File.dsco' with ID 1 and reference key '<?xml version="1.0" encoding="utf-16"?>
    <IdTable xmlns:xsd="http://www.w3.org/2001/XMLSchema" xmlns:xsi="http://www.w3.org/2001/XMLSchema-instance">
      <Table>
        <Entry>
          <AssemblyVersionInfo>
            <AssemblySavedVersion>2147483647</AssemblySavedVersion>
            <AssemblySavedBuildDate>2147483647</AssemblySavedBuildDate>
            <MigrateToCompressedLabelIsDisabled>false</MigrateToCompressedLabelIsDisabled>
          </AssemblyVersionInfo>
          <Text>~sO_~iI57b6b124-317d-4f39-b13b-ec3693ca0d06.6398_#~oE57b6b124-317d-4f39-b13b-ec3693ca0d06.6394_#_</Text>
          <Id>10000</Id>
          <IsExploded>false</IsExploded>
        </Entry>
      </Table>
      <AssemblyVersionInfo>
        <AssemblySavedVersion>2147483647</AssemblySavedVersion>
        <AssemblySavedBuildDate>2147483647</AssemblySavedBuildDate>
        <MigrateToCompressedLabelIsDisabled>false</MigrateToCompressedLabelIsDisabled>
      </AssemblyVersionInfo>
    </IdTable>'
    length unit = [m]
    processing part 'Enclosure' with ID 3
    processing named selection 'Inlet'
    processing named selection 'Outlet'
    processing named selection 'Top wall'
    processing named selection 'Side wall'
    processing named selection 'Symmetry'
    processing named selection 'Ground'
    processing named selection 'Front Wing'
    processing named selection 'Rear Wing'
    processing named selection 'Rear Wheel Patch'
    processing named selection 'Front Wheel Patch'
    processing named selection 'Rear MRF'
    processing named selection 'Front MRF'
    processing named selection 'Chasis'
    processing data ...
    loading size function background grid from file 'C:\\Users\\USER\\Documents\\Project CES\\Anduril F1\\Ansys Fluent CFD\\CFD - Trail 3 (V2 UoSM)\\Export\\FM_StarForge-FS_4196\\\\V2-final-trail.sf' ...
    reading size function background grid file 'C:\\Users\\USER\\Documents\\Project CES\\Anduril F1\\Ansys Fluent CFD\\CFD - Trail 3 (V2 UoSM)\\Export\\FM_StarForge-FS_4196\\\\V2-final-trail.sf' ...
     Read 447352 vertices
    initializing size function background grid done in 0.256 [s]
    Error: Breakout detected
    
    Error: Front could not be closed at e849 (-35.418314 -102.460848 14.115442)
    
    Error: Front could not be closed at e711 (-3.440821 -111.940465 5.002171)
    
    tessellating 240 faces done in 64.08499999999999 [s]
    removing named collections of entities ...
    removing named collections of entities stopped, no named collections selected.
    analyzing feature edges ...
    detecting feature edges, feature angle = 40 [deg] ...
        Data information
            Meshing model
                Attributes:
                    'LengthUnit': '[mm]'
                Entity summary:
                    Collection: 13
                    Component : 2
                    Body      : 1
                    Shell     : 2
                    Face      : 240
                    Loop      : 261
                    Edge      : 605
                    Vertex    : 379
                    Surface   : 240
                    Curve     : 605
                Tessellation summary:
                    Face facets  : 242582
                    Edge segments: 10219
                Bounding box:
                    (-329.9761047363281, -508.7127990722656, -0.8299999833106995) x (8.715007425053045e-05, 1991.8076171875, 342.9836120605469)
                Assembly component hierarchy:
                    'C:\\Users\\USER\\Documents\\Project CES\\Anduril F1\\Ansys Fluent CFD\\CFD - Trail 3 (V2 UoSM)\\Discovery_File.dsco'
                      'Enclosure'
                NamedCollections:
                    'Inlet'
                    'Outlet'
                    'Top wall'
                    'Side wall'
                    'Symmetry'
                    'Ground'
                    'Front Wing'
                    'Rear Wing'
                    'Rear Wheel Patch'
                    'Front Wheel Patch'
                    'Rear MRF'
                    'Front MRF'
                    'Chasis'
    
    
    exporting FLTG data to file 'C:\\Users\\USER\\Documents\\Project CES\\Anduril F1\\Ansys Fluent CFD\\CFD - Trail 3 (V2 UoSM)\\Export\\FM_StarForge-FS_4196\\out17194099664196.tgf' ...
    writing face-based mesh file 'C:\\Users\\USER\\Documents\\Project CES\\Anduril F1\\Ansys Fluent CFD\\CFD - Trail 3 (V2 UoSM)\\Export\\FM_StarForge-FS_4196\\out17194099664196.tgf' ...
    ======== Exported Data ========
    Entity summary:
        Object       : 1
        Object region: 15
        Zone         : 40
    
    running conversion done.
    running ANSYS TGrid CADToTGridConverter done.
    ran ANSYS TGrid CADToTGridConverter in 65.859 [s]
        ======== Command Execution Log Manager ========
        Number of execution logs: 1
        MeshingModelCommandExecLog
            Label = 'ANSYS_MESH_FM_WARNING_ID_MESHINGMODEL_TESSELLATION_CREATION_ENTITIES_WHERE_CONFORMAL_TESSELLATION_FAILED'
            EntityIDs = (1637)
            Points = ()
    
    

Reading "C:\Users\USER\Documents\Project CES\Anduril F1\Ansys Fluent CFD\CFD - Trail 3 (V2 UoSM)\Export\FM_StarForge-FS_4196/out17194099664196.tgf"...
Reading "C:\Users\USER\Documents\Project CES\Anduril F1\Ansys Fluent CFD\CFD - Trail 3 (V2 UoSM)\Export\FM_StarForge-FS_4196/out17194099664196.tgf"...
nodes: 124770
edges: 3437
faces: 242582
cells: 0
reading 124770 storage data (id 1, type 41, double precision binary).
appending mesh...
done.
generating pointers...done.
extracting boundary entities...
 168704 boundary nodes.
 325846 boundary faces.
 33 boundary face zones.
done.

Reading "C:\Users\USER\Documents\Project CES\Anduril F1\Ansys Fluent CFD\CFD - Trail 3 (V2 UoSM)\Export\FM_StarForge-FS_4196\\V2-final-trail.sf"...
Reading "C:\Users\USER\Documents\Project CES\Anduril F1\Ansys Fluent CFD\CFD - Trail 3 (V2 UoSM)\Export\FM_StarForge-FS_4196\\V2-final-trail.sf"...
 Read 447352 vertices
3 boundary nodes.
0 faces removed.
removed 60 faces.

Found overlapping faces sharing edge bn445-bn572 (-35.552315 -101.945530 14.099691).
Warning: 
The regions may not be computed correctly.
Found overlapping faces sharing edge bn572-bn445 (-35.552315 -101.945530 14.099691).
Warning: 
The regions may not be computed correctly.
Found overlapping faces sharing edge bn634-bn492 (-35.504381 -101.913383 14.086021).
Warning: 
The regions may not be computed correctly.
Found overlapping faces sharing edge bn492-bn634 (-35.504381 -101.913383 14.086021).
Warning: 
The regions may not be computed correctly.
Error: The surface meshing was not successful. Import the CAD outside the workflow and use Diagnostics to identify problematic faces
Error Object: #f

Error: state/object/execute-command:Exception encountered in S_ExecuteTask: The surface meshing was not successful. Import the CAD outside the workflow and use Diagnostics to identify problematic faces
Error Object: ()
(newline)


Meshing> (cx-gui-do cx-activate-item "MenuBar*WriteSubMenu*Mesh...")
(cx-gui-do cx-set-file-dialog-entries "Select File" '( "V2-final-trail.msh.h5") "CFF Mesh Files (*.msh.h5 )")
(cx-gui-do cx-activate-item "Question*OK")
Writing "C:/Users/USER/Documents/Project CES/Anduril F1/Ansys Fluent CFD/CFD - Trail 3 (V2 UoSM)/Export/V2-final-trail.msh.h5" ...
writing 12 node zones
writing 57 edge zones 
writing 32 face zones 
writing node curvature data...
done.Copying the required intermediate mesh files into C:\\Users\\USER\\Documents\\Project CES\\Anduril F1\\Ansys Fluent CFD\\CFD - Trail 3 (V2 UoSM)\\Export\\V2-final-trail_workflow_files
Done.
(cx-gui-do cx-activate-item "MenuBar*WriteSubMenu*Mesh...")
(cx-gui-do cx-set-file-dialog-entries "Select File" '( "V2-final-trail.msh.h5") "CFF Mesh Files (*.msh.h5 )")
(cx-gui-do cx-activate-item "Question*OK")
Writing "C:/Users/USER/Documents/Project CES/Anduril F1/Ansys Fluent CFD/CFD - Trail 3 (V2 UoSM)/Export/V2-final-trail.msh.h5" ...
writing 12 node zones
writing 57 edge zones 
writing 32 face zones 
writing node curvature data...
done.Copying the required intermediate mesh files into C:\\Users\\USER\\Documents\\Project CES\\Anduril F1\\Ansys Fluent CFD\\CFD - Trail 3 (V2 UoSM)\\Export\\V2-final-trail_workflow_files
Done.
/exit y
Auto-Transcript Stop Time:  23:47:40, 26 Jun 2024 Malay Peninsula Standard Time 
Total Transcript Time: 2 Hour 42 Minute 5 Second.
